80
Coordinates from ORCA-job run_pre E -4220.512866405573
  Zr         -0.10531324438761      2.17069915908593      1.30770421555660
  Zr          0.19938624270738     -2.09971634139143     -1.44723036432449
  Zr          1.84471821562449     -1.00016984533656      1.38898710026467
  Zr         -1.82601515595798      1.04720001000313     -1.49214721196359
  Zr          1.63453456190170      1.04159886088750     -1.78971257934143
  Zr         -1.60766828273709     -0.95113720683492      1.67139927165156
  O          -1.67871850856819      0.81822966304673      0.56040677827012
  O           1.78109211490052     -0.72644814915476     -0.67819843701918
  O          -0.04659449733578     -1.81722268041923      0.60429670843755
  O           0.11940963390668      1.95571631614053     -0.71748922214280
  O          -0.21443952783619     -0.14843232070506     -2.03085496796212
  O           0.26439397466815      0.23565496050578      1.98828375630111
  O          -1.34252917361116      2.24493026109691      3.14911966090933
  O          -1.71173478767122      3.76048083949111      0.84596248253727
  O           1.94790044028967      2.23406016525422      2.14115409251073
  O           1.34780292624059      4.11239577080179      0.30885410808529
  O          -1.40405398702766     -3.53540948871383     -0.84890417019985
  O          -1.30117271081088     -2.30179304562230     -3.14152939213490
  O           1.59691739966425     -3.74001764797924     -0.90040118757353
  O           1.56952913756849     -2.24237437578200     -3.20462786826454
  O           1.36739340704777     -2.21974228937705      3.18804175072184
  O           2.72929108568459      0.31309206179360      3.04315193882517
  O           2.69455851137785     -3.00818451041046      0.94171356823171
  O           3.92094421723500     -0.30638597353819      0.81452006326513
  O          -3.94394428040647      0.66105243948637     -0.80332917340875
  O          -2.52225728082815      3.12640362400516     -1.17734172632731
  O          -2.71286472031877     -0.56164471967112     -2.75098222753529
  O          -1.39771146940550      2.07809234122030     -3.41292637198599
  O           0.85779387664352      2.03041952555827     -3.63822570012531
  O           2.31118338124501      3.22692614396422     -1.55074831004923
  O           2.47500113018519     -0.17804653361344     -3.44445143552263
  O           3.69883256821702      1.08162755159828     -0.97098610334183
  O          -3.70269177731576     -0.81711224648174      0.91072381649853
  O          -2.37806961699080      0.24633532812410      3.37232794213660
  O          -2.33632377939002     -3.03344469450355      1.16620627065636
  O          -0.87938142451059     -2.06322926409323      3.45151121413395
  C          -2.11640074666860      1.42899106448116      3.74568640781434
  C          -2.41062818118630      3.93127481417530     -0.20883168955326
  C           2.56845571770100      1.56048413065939      3.04279104830454
  C           2.05365268191407      4.17250817786629     -0.76989413944963
  C          -2.05110884699017     -3.81500185816416      0.21353963909449
  C          -2.27457636354323     -1.55065034580374     -3.43030399461908
  C           2.44758906572135     -3.85939414566563      0.03467725844126
  C           2.32633035395716     -1.39735230551356     -3.76961443318804
  C           0.28038482284763     -2.43915409905453      3.80459079186505
  C           4.36920343817589      0.36141612190218     -0.16187479549144
  C          -4.37410516838416     -0.02873732753544      0.16750867449081
  C          -0.31406040622407      2.30121529715797     -4.03737268507931
  H          -2.83188945106523     -1.78511156460916     -4.38328769931677
  H           3.04152722464439     -4.81707038296137      0.06128117145813
  H           3.00990901090233      2.15078102437089      3.89534100405359
  H          -2.99209479430761      4.89367793480584     -0.27611871585191
  H           2.92860642742942     -1.76257361541359     -4.64990570253304
  H          -0.40583880703809      2.79113440148524     -5.04869084884138
  H           2.48698220938891      5.18349408510569     -1.02529231782276
  H           5.48557935030094      0.33574669402589     -0.32390867114647
  H          -2.42607402594570     -4.87596895496505      0.30182156240115
  H          -5.47725665647037      0.04900084205605      0.39099307212320
  H          -2.61084848767061      1.79899076504854      4.68691234965472
  H           0.35125851159984     -3.03050727444079      4.76156298561998
  Al         -3.18747419305437      5.08094785297144      2.81153110193149
  Al         -4.03391276419712      5.23288131069726      5.78308971225220
  H          -3.19207909121353      6.49968736264970      6.61104874738597
  H          -5.57568888703970      5.32836584065012      6.24731110284746
  H          -3.87713479074658      5.93953120172912      4.22248307712564
  H          -3.26163356662886      6.26620097130159      1.71864641669882
  H          -1.67206428993928      5.05990113728324      3.58092264994081
  H          -3.11425256720467      3.89803509837541      5.84712135783815
  Al         -1.49969390623429      6.53689933095224      7.08146633516143
  H          -0.83806736282732      6.01586963739972      5.60420622728215
  H          -1.20542590091334      8.11738720542611      7.25104108899590
  H          -4.02588061525280      3.69907667313564      2.82658743595734
  Al         -0.10606229676752      5.02545729085132      4.26927550075029
  H           0.28269555916231      4.22955995052233      2.54329166921361
  H           0.47676828599419      3.79005008556472      5.12075414960388
  H          -1.29261391130985      5.40191282747300      8.21296754435133
  Al          1.24213889486363      5.47405288455176      1.77020359215571
  H           2.79015237233689      5.54830593872374      2.24047468448336
  H           0.75664853922613      6.29098374548695      3.64952782161222
  H           0.34859725529315      6.63639121740001      1.08269885508566
