84
Coordinates from ORCA-job run E -4464.501919777160
  Zr          0.07904873513869      1.57958000926833      1.63492770921212
  Zr         -0.01682714128654     -2.02682867375706     -2.02422337732926
  Zr          1.77761109861975     -1.67569761637885      0.94196611371804
  Zr         -1.67618419664950      1.30483687678402     -1.33961876112551
  Zr          1.74597582229068      0.94123089687587     -1.69535733732107
  Zr         -1.68368263365623     -1.40798913708000      1.27295624745803
  O          -1.59617350444021      0.56162890056308      0.60770541772530
  O           1.72609257591523     -1.03194906660621     -1.04101198183716
  O          -0.18955978232779     -2.15205894788603      0.04634672201531
  O           0.30131589216449      1.78413707441498     -0.43138995154257
  O          -0.22644617546200      0.04779110250678     -2.13641500899700
  O           0.36599271174659     -0.45533873222602      1.78422604932216
  O          -1.26836560094980      1.44865638314243      3.41306070273079
  O          -1.17417202891988      3.41327030212913      1.50818356443629
  O           1.55802336132603      1.29170224001863      3.37759751251113
  O           1.80244898223544      2.98909547395175      1.40967032194493
  O          -1.57349533189174     -3.60657413283699     -1.68015692197205
  O          -1.71747842093298     -1.69304133433072     -3.45071609315146
  O           1.30877009624445     -3.81330148194339     -1.93284033896550
  O           1.20804849641127     -1.85662034774317     -3.86966410190732
  O           1.16375778637015     -3.16017836265574      2.47963136965645
  O           2.76017595245640     -0.61429522433159      3.06218109244954
  O           2.44037554024581     -3.57306164817976      0.01650643212915
  O           3.72595847026846     -0.66220828770114      0.61643053179300
  O          -3.80634053192014      0.77133906326936     -0.83380886383125
  O          -2.29723498586878      3.25366463766218     -0.45346372770279
  O          -2.65498919197902      0.35565430994872     -3.13189195375469
  O          -1.06698094860800      2.80007970168945     -2.86999002931987
  O           1.17520553978079      2.56312371220483     -3.10606546276744
  O           2.82098789739384      2.56385004682359     -0.57521889573804
  O           2.28011149716276      0.13546761792236     -3.70195330354049
  O           3.95072736244140      0.38116702019808     -1.38544261018225
  O          -3.78564467221830     -0.92799400279325      0.67909222094872
  O          -2.32080230790654     -0.54896757330371      3.21152165467608
  O          -2.60022272321250     -3.21716924736665      0.31444622830394
  O          -1.06821158022526     -2.91556444512822      2.76349755383307
  C          -2.06761082035011      0.54548912875281      3.80337078914834
  C          -1.98168608124999      3.83934977547209      0.62616798007251
  C           2.37124999683827      0.41559408018046      3.74514494083774
  C           2.57264973142723      3.27946226742235      0.44196983627756
  C          -2.31207559391419     -3.92784920263966     -0.69883138378875
  C          -2.42565124505344     -0.69768634735616     -3.80015521241842
  C           2.16042185397581     -4.17492252720216     -1.06738095777603
  C           1.98167388143253     -0.94434783291161     -4.29600038397261
  C           0.05427297024893     -3.44293210154385      3.02954961113500
  C           4.39884103112515     -0.26374314499773     -0.40306819879422
  C          -4.34478225599585      0.00413566919786      0.01979027429936
  C           0.05798148689352      3.10512357940596     -3.37006389994043
  H          -2.92420439715943     -0.76782387520719     -4.81089910571962
  H           2.73071621047657     -5.12394342190187     -1.27704213481734
  H           2.82993749550749      0.52792181513863      4.77022194932233
  H          -2.46822668054133      4.83671115803700      0.82495682237743
  H           2.45058179505125     -1.11082315532721     -5.30761960401658
  H           0.06745573606862      3.94173207361877     -4.12567749451904
  H           3.11128946315571      4.26851035664863      0.50780804334860
  H           5.49904729032987     -0.51060902064324     -0.39700755612492
  H          -2.78177174103090     -4.95296709050638     -0.73904415455974
  H          -5.44913905696798      0.15185902615163      0.20037441316966
  H          -2.60906068569397      0.73176957616298      4.77433979412847
  H           0.06851011278165     -4.23314252134920      3.82995029317149
  Al          2.38197132329342     -6.72410631144199      2.13807264743426
  Al          2.40337937896647     -6.98541321797376      5.36264728932108
  H           4.00415971283199     -7.36993398670839      4.95557637874005
  H           2.40347048247163     -5.53730308781290      6.11906395077091
  H           1.75892471264239     -6.68633284563981      3.80052812334975
  H           1.07661897817250     -6.28222068810574      1.28244775144744
  H           3.48951701698238     -5.48008790934287      2.31740043112323
  H           1.68745571335019     -8.27689479154600      5.99960685556769
  Al          5.73771195746783     -7.09159655679156      4.73248031233254
  H           5.58653705092150     -5.64091569366662      3.87735887907171
  H           6.29984763896544     -6.80167250955294      6.21634779864402
  H           3.14460372837052     -8.13716548005378      1.99100415131620
  Al          4.82517869372376     -4.32889243892461      2.91051064451567
  H           3.54011798715334     -4.34376222791550      4.22659595656979
  H           5.67533090305514     -4.47562665213794      1.54124572807782
  H           6.16300133556615     -8.27914467042770      3.73008605320422
  Al          3.17706893822897     -3.55011961720772      5.69043238585499
  H           4.28537989117585     -3.84312567170993      6.82996973740174
  H           1.63043552062063     -3.09774136974069      5.86002538596145
  Al          4.43419336281624     -1.67634573810177      3.48820926782686
  H           5.55089400038460     -0.52880860466261      3.30209473405877
  H           3.81334866913592     -2.79493248548631      2.34902594860572
  H           5.62489797158982     -3.06507998902701      3.81810407103234
  H           3.83414317634425     -1.97087208748301      5.05804564519898
