76
Coordinates from ORCA-job run E -3976.498704494130
  Zr         -0.03250284700312      1.99212920775624      1.64805926783594
  Zr          0.31780883525338     -1.96913031653038     -1.55658843372291
  Zr          1.76829090846720     -1.28019917914681      1.52676901320336
  Zr         -1.54213649405657      1.24772173867808     -1.37284146450379
  Zr          1.95284967714113      1.07993274540852     -1.38628171364065
  Zr         -1.70649511523511     -1.07002781187836      1.51374234073613
  O          -1.61923391403205      0.79372482928503      0.63880769262598
  O           1.87017866214641     -0.78084066263285     -0.48243850936530
  O          -0.12271436591368     -1.93446089394450      0.47605684874282
  O           0.34087680899731      1.91461578932556     -0.37324700140787
  O           0.04657954361420      0.03553076146102     -1.95897378471985
  O           0.21813609653090     -0.04124828802803      2.07393796839487
  O          -1.38931214041292      1.98109366107392      3.41012235286536
  O          -1.43224558313337      3.69433656943832      1.24559609460018
  O           1.66958402101297      1.90433980432256      3.07957006048285
  O           1.40897617063651      3.73297774360731      1.24139657775577
  O          -1.36894766820249     -3.44459079312238     -1.30282452749425
  O          -1.06544317252015     -1.89650041574264     -3.38442441379829
  O           1.63558728115781     -3.70914201716164     -1.10725533641537
  O           1.79960626146145     -1.98303722651566     -3.23179902709387
  O           1.06340719620027     -2.68395661064021      3.12979938930676
  O           2.51983249329004     -0.18641169048528      3.38035517511615
  O           2.55533929299209     -3.28469367856819      0.92440227809351
  O           3.87078316231572     -0.60190859672064      1.19380541673405
  O          -3.71986308814853      0.80246908122356     -0.94186807074258
  O          -2.29614716804846      3.26594974803957     -0.81021750005626
  O          -2.36241767324391     -0.07230033988100     -2.96353497645585
  O          -0.88589724754102      2.57982045033951     -3.03367023268477
  O           1.38235459552303      2.47496498470480     -3.03350178791611
  O           2.77493965439552      2.87191876514397     -0.36984379789962
  O           2.75071633857174      0.08005248690375     -3.20615932083898
  O           4.08360681101490      0.63331378072161     -0.71207753392022
  O          -3.83241850567276     -0.61145000692414      0.84972937516406
  O          -2.45835732922695     -0.02357855508767      3.34853846105747
  O          -2.58691405059531     -2.88656044147993      0.53633481381618
  O          -1.19676451656078     -2.46061979788831      3.16732074070247
  C          -2.19609378804469      1.10617837398536      3.85795278522171
  C          -2.15298843462341      3.96717661473222      0.23884909249948
  C           2.27594798516378      0.99731997557118      3.74515404234756
  C           2.33648373231414      3.80427117870179      0.38766736289468
  C          -2.20848099302984     -3.67886418949705     -0.38061149531338
  C          -1.92292699005641     -1.02368818428416     -3.69467613333827
  C           2.37066995867411     -3.99224940379429     -0.11191117099595
  C           2.56427225806346     -1.08020007345653     -3.68792441672738
  C          -0.09327681604112     -2.93867139131109      3.57902741131411
  C           4.52681370396709     -0.08673344630796      0.22863365182415
  C          -4.32111533599943      0.19433239818983     -0.00050247283274
  C           0.26577299594902      2.89158124974085     -3.46779824159923
  H          -2.36798346709264     -1.09670786462870     -4.72936416344970
  H           2.91757573427571     -4.97786302153397     -0.15399947663474
  H           2.64884206548745      1.30020980125499      4.76681360964694
  H          -2.72729491363644      4.93681197869983      0.27901274713481
  H           3.14432481523034     -1.33463539456507     -4.62114730930324
  H           0.29978916808559      3.61648271430652     -4.33084985870319
  H           2.85512717008118      4.80222829277318      0.28652311610217
  H           5.63837546320330     -0.28574256003059      0.22847745480583
  H          -2.69088056723563     -4.69957021448026     -0.38959494286286
  H          -5.43157670814214      0.38340829471772      0.08078662718939
  H          -2.73635906657433      1.36683161881887      4.81333923776855
  H          -0.15333798121295     -3.66941813905615      4.43615792390964
  Al         -5.91923669379300      0.83054234562075     -3.84748435353923
  Al         -3.47142886007001      2.23078409369886     -5.82554664079467
  H          -3.40513068141010      3.67760161512934     -4.88370578727086
  H          -2.05821226861814      1.46451833424116     -5.75162250695553
  H          -4.63180924522521      1.39523345481494     -4.86091624625605
  H          -5.49273168727153     -0.53247091279002     -3.11081146126146
  H          -5.95680979381409      2.17263402896869     -2.75568599894394
  H          -4.22671704378758      2.63416396939305     -7.19221583771737
  Al         -3.54626079349459      5.08650246871149     -3.88876189516699
  H          -4.63408484011169      4.41342544400428     -2.72476129967650
  H          -2.13431101984375      5.43476111026897     -3.20251770953618
  H          -7.24952101610443      1.01809488319688     -4.74271253925897
  Al         -5.90459467882827      3.63898061760065     -1.84187880237339
  H          -5.43162309003175      3.36213309452154     -0.32904664382184
  H          -7.25140180152632      4.42747530843191     -2.25207007860648
  H          -4.42920944001222      6.11700279572418     -4.76192141681433
