80
Coordinates from ORCA-job run E -4224.308246420304
  Zr          0.73113472050560      1.67539509583793      1.03433339182858
  Zr         -0.40360541031263     -2.76130747304191     -1.12762310113249
  Zr          1.35326255351474     -1.92835947102869      1.78243257719133
  Zr         -1.03481240301464      0.92719611221518     -1.84315543405042
  Zr          2.08315089541632     -0.39465151753472     -1.49366037425879
  Zr         -1.82719652202478     -0.56451683427128      1.51094303093924
  O          -1.14861903139978      0.88369343544061      0.22202182417733
  O           1.70261940016096     -1.93611065438779     -0.23351737119484
  O          -0.62827942588145     -2.10897712500317      0.78809083172599
  O           0.97104898809506      1.28665358255555     -1.02796079703451
  O           0.01540656914152     -0.88154227635404     -1.85512868816416
  O           0.30754993481204     -0.13716256622036      1.93413319860110
  O          -0.53810613849740      2.54958610198694      2.61673138512774
  O          -0.04223649289158      3.61372596589619      0.22648741407479
  O           2.12941552613656      1.56536714353714      2.82397694285191
  O           2.70726129610263      2.85085538434653      0.55223209172827
  O          -2.34741844622115     -3.69046291759179     -0.50050064763715
  O          -1.87456868602177     -2.49236644859464     -2.75763368415439
  O           0.31863993051540     -4.65770904602580     -0.30006772066481
  O           0.87762592689480     -3.54473966394757     -2.71151375875777
  O           0.29531852150769     -2.44229719292745      3.66556899505628
  O           2.64741429660414     -0.64183650147376      3.03054559243389
  O           1.13047955053905     -4.15462425212250      1.74938733558801
  O           3.45939071785101     -2.84100644768919      1.82592626392142
  O          -3.21184793419502      0.99836898673213     -1.41551109075217
  O          -1.16862540713162      3.11307946710292     -1.67518612642509
  O          -2.08982616444901     -0.32004576048645     -3.38729056297020
  O           0.03102445586710      1.53048888199845     -3.68590507626630
  O           2.10661030222962      0.65697218483973     -3.46389016949239
  O           3.04671970869459      0.67158942674185      0.26617716919747
  O           2.49873450531962     -1.99961445461960     -3.00620782610502
  O           4.56839217942906     -1.82521065959600      0.17362378403475
  O          -3.70152867398607      0.42175214047063      0.72559002929743
  O          -2.14975466166440      1.01680785739630      3.02573120214283
  O          -3.26269178126450     -2.13268509200647      0.87103966755387
  O          -1.80921603474839     -1.65572217858778      3.43664951345164
  C          -1.54336074498980      2.10620263042265      3.24225824055835
  C          -0.69005174250559      3.91449643321645     -0.81264485333756
  C           2.62286790769007      0.56929282514718      3.41934549387941
  C           3.45339709532099      1.90612581139468      0.22820458906306
  C          -3.20496402739841     -3.28020038333317      0.32922461677625
  C          -2.20043768153714     -1.56374214282752     -3.56287347298954
  C           0.77735969022287     -4.95765956319848      0.84355073813659
  C           1.92074476098627     -3.08952931652630     -3.27246727755967
  C          -0.88855946350679     -2.25560357468296      4.06590994442396
  C           4.46771681117991     -2.69270718792749      1.10544507744406
  C          -3.94219580418899      0.98962966832789     -0.37422175418984
  C           1.23444770903524      1.36547877839472     -4.04546024391892
  H          -2.65056703211258     -1.89009381313006     -4.52029862809565
  H           0.87665875151229     -6.03683994861761      1.06524011319529
  H           3.11519789121215      0.77228207283099      4.39089887492644
  H          -0.86847157036017      4.99134276418707     -0.99401945473968
  H           2.35644835665858     -3.70900984344699     -4.07687271552314
  H           1.55185178615331      1.88912793499837     -4.96693067978530
  H           4.49009908213344      2.09518841495924     -0.10325388562541
  H           5.33429525662987     -3.35750859521017      1.29270098732906
  H          -4.00766228017947     -3.99160737317741      0.60301398688519
  H          -4.90693282124065      1.52776833009846     -0.45205045055239
  H          -1.93385804187279      2.73680627782322      4.06287171374100
  H          -1.14797210158051     -2.65637999731530      5.06386381813634
  Al          5.46208350446584     -1.18873696642276     -1.30738542208054
  H           4.14173088548947     -0.32571081393652     -1.88724076536002
  H           5.13372647468790     -6.28176657501775     -5.52957279464388
  H           7.36144653474437     -3.37208993157209     -2.90976215802909
  Al          7.07674425008921      0.85004218452745     -1.70317231175961
  H           8.62684451745437      0.62161815584629     -1.39492349568578
  H           6.35429068046170      2.21037826347308     -2.13111161001139
  H           7.07614600755802     -1.93666277257220     -0.74335490895573
  Al          5.49275570920708     -4.19851073459803     -2.61054232286877
  H           4.08469339049797     -4.83620649615827     -2.19570399645495
  H           6.15499493535545      0.19169167877727     -0.39952193033954
  H           5.39248575864406     -3.86564122566711     -4.36406863766666
  Al          7.67899593726418     -3.38262496081786     -1.29519718972148
  H           6.32315864010703     -4.35255118288780     -0.97591345640606
  H           9.04151325379571     -3.91140170979246     -0.67530023013653
  H           7.63697684100480     -4.88485163974626     -5.49275783296776
  Al          6.21703535822435     -5.29672038402210     -4.89378691614187
  H           5.20183895150892     -2.51238315897918     -2.33102854323615
  H           6.48300861855059     -0.46258355797662     -2.62433100684668
  H           6.38543119799168     -5.65408160845048     -3.21327906072818
