80
Coordinates from ORCA-job run E -4220.489316462767
  Zr         -0.24054745937723      1.96854271165455      1.54086964308308
  Zr         -0.08899619446067     -2.25058711560504     -1.33365120932885
  Zr          1.37218565100638     -1.40942321789377      1.68998103500021
  Zr         -1.75064739070485      1.13634507935889     -1.48365219243127
  Zr          1.69299217713306      0.70962569853319     -1.42175964730185
  Zr         -2.07702169139624     -0.98035064328192      1.58603321602574
  O          -1.88775438637186      0.82534189092825      0.57284640399942
  O           1.53473020055545     -1.08345911334439     -0.37664073111055
  O          -0.49902048982987     -2.02642118821688      0.68505836311293
  O           0.14394287567430      1.74647588680586     -0.49991742736846
  O          -0.24495866138510     -0.25203422110552     -1.90311977368129
  O          -0.13605980902583     -0.03487785579359      2.08887549651656
  O          -1.68322052727895      2.18503224523513      3.22957175324855
  O          -1.46268648527310      3.73674131534420      0.96640828962214
  O           1.25455577185276      1.88237599806997      3.23375945330619
  O           1.46060487439792      3.37159215282043      1.10331328504806
  O          -1.66595682020332     -3.81715888847385     -0.86382428661695
  O          -1.68500982797840     -2.21885343676771     -2.92225560328137
  O           1.23489740272922     -3.97886879262571     -0.80939036482000
  O           1.27458147032448     -2.44053704735608     -3.10426718155694
  O           0.55788318038733     -2.65872409555474      3.34909066107226
  O           2.09293501060723     -0.22465997737127      3.47709837339157
  O           2.11983499877577     -3.45255686627996      1.21713926462560
  O           3.50078973448067     -0.77051643729103      1.36684953174394
  O          -3.91395923975372      0.64512835338455     -1.10433004175150
  O          -2.42460378650287      3.21543855213828     -1.02630236345587
  O          -2.55168879078113     -0.12873014284367     -3.17952247224650
  O          -0.97696380126115      2.33013171408084     -3.19023972688493
  O           1.26476190700588      1.96385041307035     -3.22488270180776
  O           2.60104866503851      2.66076142764962     -0.73644062983170
  O           2.45108280594805     -0.49914335950147     -3.14377928545206
  O           3.76745768309424      0.34596702425149     -0.59146565458482
  O          -4.16681677900368     -0.51361123235406      0.84104394814281
  O          -2.82798699273056      0.22094044907518      3.30404613071605
  O          -2.98693890832546     -2.84057033958413      0.71615690665197
  O          -1.68293337607862     -2.27254168110244      3.35408202240242
  C          -2.54200051636779      1.38666587261655      3.71510047954623
  C          -2.19818580366861      3.97953942954420     -0.03908483432581
  C           1.84590330079776      0.95490992651646      3.87130558920633
  C           2.27740382730494      3.51743917027229      0.14180930715311
  C          -2.58904664256414     -3.81782631906670      0.00180992241388
  C          -2.30454323541172     -1.31058607876233     -3.56165027018929
  C           1.96605996536794     -4.20104090638671      0.20291337064388
  C           2.11741829319180     -1.63537581150996     -3.60239122166529
  C          -0.61943462908566     -2.80881309667924      3.79529601496139
  C           4.19397095794280     -0.30917594780041      0.40771200626385
  C          -4.58675577551653      0.18724039441110     -0.12707043684007
  C           0.19132483951051      2.47335905289112     -3.66658276199907
  H          -2.69863573775299     -1.59757249733112     -4.58051240920253
  H           2.54350283462886     -5.17056680900300      0.20578482379034
  H           2.21102902307936      1.21780742125481      4.90745165585351
  H          -2.70569893514049      4.98699430525244     -0.05702172899836
  H           2.62377467946273     -1.96398939729657     -4.55704328050381
  H           0.28208965707546      3.12485538659091     -4.58313793746524
  H           2.79032913559534      4.52080453473652      0.07055196529935
  H           5.30828233902323     -0.47529366660891      0.46791852786028
  H          -3.13903502550519     -4.79322657841165      0.14852595046544
  H          -5.69235810656644      0.41797828365238     -0.13518035185587
  H          -3.11653560439599      1.75475034354682      4.61373921596859
  H          -0.73695243121616     -3.49433216100157      4.68363838727169
  Al          7.93588192612068     -1.72800272173379     -1.14598237166706
  Al          5.31609945274358     -3.53210989495532     -2.10686174939210
  H           5.23174095115753     -2.90708244775025     -3.72910052753434
  H           5.41435722358571     -5.13862389912859     -2.19993380658145
  H           6.92330648257188     -2.96228023529185     -1.83317958372752
  H           9.33722477604770     -1.85242512726057     -1.92740735398215
  H           7.00697932156273     -0.41330952157623     -1.75714835063294
  H           4.29764747839113     -2.63777906778823     -1.26404595153508
  Al          5.94733600419162     -1.64754408778701     -4.70133046690300
  H           5.47707926488622     -0.37761401523414     -3.63710826240731
  H           7.55441526637904     -1.79399636972922     -4.57578969497106
  H           7.68828188199909     -1.70995673570775      0.45022860738968
  Al          6.70312432734281      0.74722602381358     -3.06093997426333
  H           8.49791363364248      0.97969374450242     -3.05796504760334
  H           5.98560173703298      2.01360635341339     -2.40373109393904
  H           5.03374836260075     -1.57503978163161     -6.02607215601389
  Al          8.68422643542222      1.44921925246617     -4.73438011822650
  H           8.84284227299060      3.05325666518956     -4.76175482610273
  H           6.97604310417288      1.08452754552277     -4.85418696788111
  H           9.55091035707926      0.35524263015464     -5.53394252196740
