8
Coordinates from ORCA-job run E -487.788333020977
  Al          0.00004066600745     -0.00322179436792      2.33217386437243
  Al         -0.00035023134714     -0.00267530729411     -0.26297137467633
  H           1.14370010049509     -0.05413229961860      1.03441956738835
  H          -0.06347190689851     -1.41677283475104     -0.94690601935578
  H          -1.14399785606007      0.04849452997914      1.03478298035986
  H           0.06315412243209      1.41069524395304      3.01647904675176
  H          -0.06288226034867     -1.41760196067524      3.01554140614287
  H           0.06256736571972      1.41152442277475     -0.94670947098317
