8
Coordinates from ORCA-job run E -487.787882309066
  Al      0.000064     -0.002698      2.341285
  Al     -0.000326     -0.002155     -0.272083
  H       1.163599     -0.050069      1.034418
  H      -0.064257     -1.432370     -0.956215
  H      -1.163479      0.053786      1.034787
  H       0.063751      1.421088      3.038615
  H      -0.063706     -1.433198      3.024837
  H       0.063113      1.421926     -0.968834
8
Coordinates from ORCA-job run E -487.788112401374
  Al      0.000062     -0.002711      2.339569
  Al     -0.000327     -0.002168     -0.270366
  H       1.158335     -0.050032      1.034419
  H      -0.064035     -1.427587     -0.952094
  H      -1.158229      0.053393      1.034786
  H       0.063537      1.416496      3.034039
  H      -0.063484     -1.428413      3.020718
  H       0.062901      1.417332     -0.964261
8
Coordinates from ORCA-job run E -487.788321199456
  Al      0.000057     -0.002750      2.335133
  Al     -0.000330     -0.002208     -0.265930
  H       1.145680     -0.050059      1.034421
  H      -0.063563     -1.417611     -0.942790
  H      -1.145615      0.052365      1.034783
  H       0.063089      1.407088      3.023389
  H      -0.063014     -1.418435      3.011420
  H       0.062457      1.407919     -0.953615
8
Coordinates from ORCA-job run E -487.788326074866
  Al      0.000056     -0.002761      2.334643
  Al     -0.000331     -0.002219     -0.265440
  H       1.144992     -0.050182      1.034421
  H      -0.063578     -1.418088     -0.942719
  H      -1.144939      0.052215      1.034783
  H       0.063109      1.407712      3.022970
  H      -0.063028     -1.418912      3.011348
  H       0.062478      1.408544     -0.953197
8
Coordinates from ORCA-job run E -487.788332059682
  Al      0.000054     -0.002806      2.333002
  Al     -0.000333     -0.002263     -0.263799
  H       1.142916     -0.050663      1.034421
  H      -0.063598     -1.419047     -0.942334
  H      -1.142909      0.051674      1.034783
  H       0.063149      1.409227      3.021265
  H      -0.063043     -1.419871      3.010965
  H       0.062523      1.410059     -0.951492
8
Coordinates from ORCA-job run E -487.788332258360
  Al      0.000054     -0.002819      2.332841
  Al     -0.000333     -0.002276     -0.263638
  H       1.143043     -0.050805      1.034421
  H      -0.063590     -1.418967     -0.942412
  H      -1.143047      0.051567      1.034783
  H       0.063146      1.409286      3.021003
  H      -0.063034     -1.419792      3.011043
  H       0.062522      1.410117     -0.951231
8
Coordinates from ORCA-job run E -487.788332799338
  Al      0.000051     -0.002903      2.332059
  Al     -0.000337     -0.002359     -0.262856
  H       1.143904     -0.051656      1.034420
  H      -0.063540     -1.418323     -0.942989
  H      -1.143977      0.050922      1.034783
  H       0.063124      1.409473      3.019529
  H      -0.062976     -1.419148      3.011621
  H       0.062511      1.410304     -0.949757
8
Coordinates from ORCA-job run E -487.788332816230
  Al      0.000051     -0.002916      2.332055
  Al     -0.000337     -0.002372     -0.262852
  H       1.143932     -0.051763      1.034420
  H      -0.063536     -1.418236     -0.943148
  H      -1.144014      0.050823      1.034783
  H       0.063124      1.409503      3.019396
  H      -0.062970     -1.419062      3.011781
  H       0.062512      1.410333     -0.949625
8
Coordinates from ORCA-job run E -487.788332938900
  Al      0.000046     -0.003061      2.332079
  Al     -0.000344     -0.002516     -0.262876
  H       1.143998     -0.052895      1.034420
  H      -0.063497     -1.417424     -0.944928
  H      -1.144182      0.049743      1.034783
  H       0.063128      1.409942      3.018027
  H      -0.062919     -1.418251      3.013562
  H       0.062530      1.410772     -0.948256
8
Coordinates from ORCA-job run E -487.788332992432
  Al      0.000043     -0.003159      2.332122
  Al     -0.000348     -0.002612     -0.262920
  H       1.143899     -0.053647      1.034420
  H      -0.063477     -1.416965     -0.946143
  H      -1.144152      0.049003      1.034783
  H       0.063138      1.410327      3.017119
  H      -0.062891     -1.417793      3.014778
  H       0.062548      1.411156     -0.947349
8
Coordinates from ORCA-job run E -487.788333016841
  Al      0.000041     -0.003217      2.332164
  Al     -0.000350     -0.002671     -0.262962
  H       1.143750     -0.054096      1.034420
  H      -0.063469     -1.416753     -0.946869
  H      -1.144044      0.048544      1.034783
  H       0.063149      1.410628      3.016557
  H      -0.062879     -1.417582      3.015505
  H       0.062563      1.411458     -0.946788
8
Coordinates from ORCA-job run E -487.788333020977
  Al      0.000041     -0.003222      2.332174
  Al     -0.000350     -0.002675     -0.262971
  H       1.143700     -0.054132      1.034420
  H      -0.063472     -1.416773     -0.946906
  H      -1.143998      0.048495      1.034783
  H       0.063154      1.410695      3.016479
  H      -0.062882     -1.417602      3.015541
  H       0.062567      1.411524     -0.946709
