8
Coordinates from ORCA-job run E -488.167046546594
  Al          0.00006440961902     -0.00269814278882      2.34128532272703
  Al         -0.00032595504894     -0.00215499883037     -0.27208251863699
  H           1.16359850448290     -0.05006868509654      1.03441788337478
  H          -0.06425654689885     -1.43236981170196     -0.95621487070488
  H          -1.16347882569787      0.05378573597830      1.03478688442852
  H           0.06375098026215      1.42108829070846      3.03861500020874
  H          -0.06370571909523     -1.43319814412475      3.02483652484101
  H           0.06311315237679      1.42192575585570     -0.96883422623822
