80
Coordinates from ORCA-job run E -4220.487203285644
  Zr         -0.29536882566884      2.10402753906347      1.23076866158001
  Zr          0.03267797836546     -2.14582150944873     -1.59324972789587
  Zr          1.79090243347817     -0.98493725596205      1.17073540337561
  Zr         -2.11640911355970      0.96692932621765     -1.48717855624964
  Zr          1.30770040662064      1.06491470218028     -1.96541995215438
  Zr         -1.64157006866298     -1.11401398525205      1.56866794299332
  O          -1.88817325932784      0.67767102518141      0.53841989740949
  O           1.60717699718955     -0.67535917907104     -0.88976062039181
  O          -0.09108338176094     -1.90555967968977      0.44778984132256
  O          -0.19978749144985      1.85910105902702     -0.82480689090914
  O          -0.51998833665454     -0.22061019920840     -2.14013235811482
  O           0.18989942427387      0.15839364079255      1.77962798478241
  O          -1.45060553339069      2.12527813789510      3.14087731541907
  O          -1.87508129349023      3.63881079917007      0.87397339942681
  O           1.51042932444281      2.29586599847640      2.50248806505624
  O           0.97540845249310      3.80325482866207      0.44766467381776
  O          -1.19479723540917     -3.89446186432970     -0.84514939500065
  O          -1.77089907870141     -2.42825543782189     -2.90738489423946
  O           1.68931320104117     -3.60232313601122     -1.26840748091553
  O           1.11659447185879     -2.18059958984898     -3.54390370119836
  O           1.45383082867343     -2.28811526438650      2.95330778657362
  O           2.57953105907605      0.32160920124954      2.89394442476290
  O           2.77383450398134     -2.89619633323128      0.59689057693556
  O           3.73331989446733     -0.02580171127995      0.60940328711772
  O          -4.21300902737900      0.44102882094567     -0.71290653380650
  O          -2.94431855246182      2.98545169292586     -1.02174325087782
  O          -3.06415191296752     -0.56084724064160     -2.81829924369285
  O          -1.80026553240952      2.12183630277958     -3.36657186937334
  O           0.43345819495664      2.08512389974615     -3.77592061783782
  O           1.86235844344892      3.25336442277109     -1.58910583132444
  O           2.04226637323743     -0.11828238897808     -3.73014981600596
  O           3.43177842361915      1.23631604107392     -1.25611735754510
  O          -3.74094397566215     -1.13953031821317      0.85893825500231
  O          -2.38432942449346      0.05831174326304      3.31864780542377
  O          -2.23610987604184     -3.24928901004002      1.08625547307335
  O          -0.78551319656529     -2.18809214584346      3.32401588992990
  C          -2.16984858110089      1.24678609920678      3.70960116517382
  C          -2.73115340673830      3.77700215309621     -0.05312969841341
  C           2.24943117633623      1.50522293976710      3.18394747100837
  C           1.54516646677681      4.05922407479979     -0.66075623700615
  C          -1.85379116977510     -4.09852613437744      0.22356740847726
  C          -2.68533181396919     -1.66016747134464     -3.33161050892738
  C           2.60960092960063     -3.66771085242328     -0.39713399060226
  C           1.77878175263614     -1.28967143454749     -4.15263192331478
  C           0.39853741649467     -2.54650907350910      3.60892640495187
  C           4.14372075590408      0.65340499651213     -0.37716627478357
  C          -4.51843240444697     -0.34606625273940      0.22587689647126
  C          -0.76847362314133      2.37452916814586     -4.06198604841439
  H          -3.24237827351746     -2.00012950391324     -4.25246733121073
  H           3.35499892552188     -4.50549603666359     -0.51444879840694
  H           2.66626453593891      1.92695450743598      4.14486204182386
  H          -3.37062270232157      4.70504493547756     -0.01205083677864
  H           2.18541653693897     -1.56384691621125     -5.16836698564564
  H          -0.93891643221598      2.91380770625316     -5.03769527438102
  H           1.81640065921383      5.14200367332740     -0.83535610634976
  H           5.25906219108082      0.78592815371288     -0.48835562161570
  H          -2.14848641701997     -5.17107441866748      0.42088257725192
  H          -5.60425179610250     -0.37036996230348      0.53440438138770
  H          -2.67414470522303      1.55752685101419      4.66971525633330
  H           0.52565432296905     -3.16179844452347      4.54541272261077
  Al          8.63699345185592      1.04105290906043     -4.82552763563778
  Al          8.18883593345564     -0.83800403753851     -2.19939340617351
  H           6.71821007389083     -1.61819228321743     -2.68689926147455
  H           9.19854094995093     -1.99846302222165     -1.73224218417642
  H           8.62353078595037     -0.38204397207546     -3.80092530492917
  H           8.46013577167442      0.44784682201782     -6.31435950594231
  H           7.12144290201017      1.63019143267176     -4.30471056469915
  H           7.76215441832149      0.47922934067938     -1.36665452867262
  Al          5.14315581192027     -1.33594761732595     -3.37224991714015
  H           5.28482539824966      0.38814495508412     -3.46527117927405
  H           5.19630382460177     -1.84328420687971     -4.90192210887417
  H           9.77972856173959      2.00837856027996     -4.22641724487921
  Al          5.50662057909993      2.09745663995897     -3.68198953526771
  H           5.43862200286492      2.95449107766917     -5.25207386441246
  H           5.88700530247993      2.97498904194637     -2.39449575102562
  H           4.11949477554007     -1.71521750278808     -2.19735006743936
  Al          3.67548407523348      3.02192094603392     -5.39501991507361
  H           3.27002935780368      4.56001360928866     -5.15054842918643
  H           3.69504373063430      2.18292171671536     -3.88585422701734
  H           3.30101793866735      1.98643430645122     -6.57170162233177
