80
Coordinates from ORCA-job run E -4220.480657836612
  Zr         -0.11649259160916      2.08572574563266      1.44475457242781
  Zr          0.39753926643666     -1.97581175381070     -1.55222270624020
  Zr          1.77230307876234     -1.11530970378420      1.50060490488503
  Zr         -1.43016423856489      1.32824929644656     -1.66249663467548
  Zr          2.02749794120007      1.09036089927419     -1.50377825472974
  Zr         -1.72040555847870     -0.97190632963409      1.29745296892995
  O          -1.58524362616273      0.86111627279515      0.33527766430229
  O           1.89640430509283     -0.70674414311645     -0.52346634877601
  O          -0.04852635816644     -1.86363383733039      0.45008717986852
  O           0.41161130756199      2.01525222484930     -0.58073188739323
  O           0.11684468661778      0.03130622468257     -2.09573323138360
  O           0.14037130715602      0.10440666429743      1.93626637634187
  O          -1.70847361437567      2.17149606125336      3.01185481540311
  O          -1.34423136658220      3.85848106756320      0.87814860325067
  O           1.12361546104232      2.08828924988179      3.38313132389262
  O           1.63027519539439      3.47829887198280      1.25975988986959
  O          -0.97303617586462     -3.79456356876184     -1.10242445403637
  O          -1.33772349475139     -2.03661079333146     -2.94181160912000
  O           1.83666382192491     -3.61908504790659     -1.06829661099467
  O           1.76845824043985     -1.99926916188430     -3.29531051415353
  O           1.01056101195420     -2.35037187309103      3.19485148287219
  O           2.50788504884572      0.31253946389843      3.02775493100795
  O           2.55051477480898     -3.15218006632017      1.03934040498883
  O           3.95722753361839     -0.65053635376599      1.08099800876823
  O          -3.65425221624447      0.95942941555821     -1.23148192481022
  O          -2.11101558079899      3.41589128213491     -1.21389567630650
  O          -2.31023242035548     -0.00378476851734     -3.23451036808548
  O          -0.64545261250195      2.54158026948071     -3.40482772615525
  O           1.60092353200335      2.53263882965628     -3.15461279573185
  O           2.92028466140977      2.90483021574272     -0.52158477192451
  O           2.75814081641792      0.04448494240919     -3.33481426267663
  O           4.13102926969393      0.62240792347614     -0.81318433827629
  O          -3.78509982343575     -0.55518307040657      0.48066663613610
  O          -2.63133623940598      0.09509474012504      3.02680802367578
  O          -2.47605609843888     -2.80087179780556      0.29612098047687
  O          -1.26014180560623     -2.30010129127482      3.03863802623751
  C          -2.48999016162264      1.27945351505116      3.46189360307879
  C          -1.95805235642810      4.15381548579617     -0.19388321651452
  C           2.00805673709844      1.25757369941257      3.73054460476250
  C           2.51175650434960      3.70440797920252      0.37359472503198
  C          -1.96103961071231     -3.79990747100030     -0.31815169894918
  C          -2.08765360050150     -1.21066154446828     -3.55013146738191
  C           2.47939076184540     -3.87226069686926     -0.00448241420691
  C           2.48554470384477     -1.09262779180055     -3.82604770269730
  C          -0.16362368325858     -2.66089219361119      3.56649065680965
  C           4.58695541876991     -0.11887360572791      0.11482029344574
  C          -4.26197754186542      0.29375906657902     -0.33850229817900
  C           0.52906675931227      2.92603699817727     -3.70337367912747
  H          -2.62899076090046     -1.61192187131698     -4.45688230172259
  H           3.05347967622138     -4.84290213940220      0.01711490088739
  H           2.42389519792747      1.36631411630338      4.77475853718112
  H          -2.41776713546079      5.18259367142675     -0.24300728649185
  H           2.92516095718688     -1.32073045685687     -4.83885405961419
  H           0.62850388832768      3.71072600683477     -4.50832884545000
  H           3.00245302387110      4.72048598832865      0.40355210312266
  H           5.69884561243456     -0.31634364618259      0.08101287047390
  H          -2.46718931130886     -4.79482192433269     -0.14536259015457
  H          -5.37717220865243      0.46506565010708     -0.27117310921063
  H          -3.13156315565871      1.57034544492770      4.34271154769575
  H          -0.23997385994242     -3.33410718006800      4.46874392109825
  Al         -3.42332280509291     -0.86980881006286     -7.56469055806609
  Al         -5.15358093820395      1.49190019157958     -5.85993530482671
  H          -4.00582904586416      2.52542882534994     -6.64758405479711
  H          -6.57222225410850      1.73599883013547     -6.57509874874336
  H          -4.46153840098598      0.05028670457165     -6.52578581858212
  H          -3.53181796186430     -0.21349505693503     -9.03417317408203
  H          -1.91853291147798     -0.36710053944634     -6.90504381671534
  H          -4.79856034890713      1.51459368809553     -4.29686265645349
  Al         -2.48744670379901      3.36695310320995     -6.56436910284056
  H          -1.62945352752524      1.89905697325844     -6.19063943313710
  H          -2.07167654172136      3.68754958764209     -8.08675773129100
  H          -3.63970644759550     -2.40328184726148     -7.11194718375401
  Al         -0.53133807670700      0.59736524829120     -6.34058880845361
  H           0.19833812722819      0.23024243070953     -7.90183596418222
  H          -0.02370204472287     -0.21342712229725     -5.06479831033504
  H          -2.52331149287346      4.29904806739794     -5.25061412373613
  Al          1.59670393460273      1.31266428192406     -7.78020829817890
  H           2.82041878018138      0.37230796174836     -7.31019447824020
  H           0.79705920864102      1.94614671946409     -6.39095342784253
  H           1.46069568340017      2.35275963730911     -9.00100049119348
