60
Coordinates from ORCA-job run E -3004.135570123745
  Zr     -0.173596      2.058785      1.469921
  Zr      0.173596     -2.058785     -1.469921
  Zr      1.726886     -1.127536      1.477942
  Zr     -1.726886      1.127536     -1.477942
  Zr      1.730081      1.028837     -1.543420
  Zr     -1.730081     -1.028837      1.543420
  O      -1.747317      0.780102      0.565545
  O       1.747317     -0.780102     -0.565545
  O      -0.135724     -1.914093      0.558551
  O       0.135724      1.914093     -0.558551
  O      -0.141999     -0.077916     -1.992478
  O       0.142000      0.077916      1.992478
  O      -1.478386      2.100602      3.257151
  O      -1.649811      3.663548      1.026161
  O       1.533719      2.090619      2.897659
  O       1.201118      3.786530      0.965454
  O      -1.201118     -3.786530     -0.965454
  O      -1.533719     -2.090619     -2.897659
  O       1.649810     -3.663548     -1.026161
  O       1.478386     -2.100602     -3.257151
  O       1.111398     -2.473727      3.139401
  O       2.447574      0.046228      3.275662
  O       2.610319     -3.083919      0.940276
  O       3.734375     -0.269910      1.046600
  O      -3.734375      0.269910     -1.046600
  O      -2.610320      3.083919     -0.940275
  O      -2.447573     -0.046227     -3.275662
  O      -1.111398      2.473727     -3.139401
  O       1.147550      2.346951     -3.223828
  O       2.568249      2.857632     -0.591833
  O       2.442450     -0.054413     -3.351598
  O       3.903122      0.675241     -1.011537
  O      -3.903122     -0.675241      1.011537
  O      -2.442450      0.054413      3.351598
  O      -2.568249     -2.857632      0.591833
  O      -1.147550     -2.346951      3.223828
  C      -2.218274      1.218927      3.787293
  C      -2.450082      3.839312      0.064491
  C       2.167102      1.232450      3.593522
  C       2.112715      3.827047      0.097154
  C      -2.112716     -3.827047     -0.097154
  C      -2.167102     -1.232450     -3.593523
  C       2.450081     -3.839312     -0.064491
  C       2.218273     -1.218927     -3.787293
  C      -0.020171     -2.773599      3.614779
  C       4.371402      0.105679      0.009705
  C      -4.371402     -0.105679     -0.009706
  C       0.020171      2.773599     -3.614779
  H      -2.524538     -1.578838     -4.583071
  H       3.078720     -4.749345     -0.102064
  H       2.524538      1.578838      4.583070
  H      -3.078721      4.749345      0.102065
  H       2.720858     -1.500492     -4.732215
  H       0.029327      3.484275     -4.463088
  H       2.587089      4.812401     -0.078902
  H       5.463979     -0.076364      0.019328
  H      -2.587089     -4.812401      0.078901
  H      -5.463979      0.076364     -0.019328
  H      -2.720859      1.500492      4.732215
  H      -0.029327     -3.484274      4.463089
60
Coordinates from ORCA-job run E -3004.136685811882
  Zr     -0.173039      2.054000      1.466284
  Zr      0.173039     -2.054000     -1.466284
  Zr      1.722708     -1.124641      1.474556
  Zr     -1.722708      1.124641     -1.474556
  Zr      1.726100      1.026252     -1.539553
  Zr     -1.726100     -1.026252      1.539553
  O      -1.746001      0.779150      0.564679
  O       1.746001     -0.779151     -0.564679
  O      -0.136068     -1.912492      0.557961
  O       0.136068      1.912492     -0.557961
  O      -0.142156     -0.078179     -1.990822
  O       0.142156      0.078179      1.990822
  O      -1.473738      2.097417      3.250007
  O      -1.645282      3.655833      1.025023
  O       1.529536      2.087416      2.891452
  O       1.197525      3.778607      0.964671
  O      -1.197526     -3.778606     -0.964671
  O      -1.529535     -2.087416     -2.891453
  O       1.645282     -3.655833     -1.025023
  O       1.473738     -2.097417     -3.250007
  O       1.110387     -2.468010      3.132469
  O       2.443048      0.044626      3.268346
  O       2.605630     -3.076112      0.939606
  O       3.726271     -0.270313      1.045570
  O      -3.726271      0.270312     -1.045571
  O      -2.605630      3.076111     -0.939606
  O      -2.443048     -0.044626     -3.268347
  O      -1.110387      2.468010     -3.132468
  O       1.146994      2.341964     -3.216155
  O       2.563453      2.851029     -0.591867
  O       2.437806     -0.053001     -3.343959
  O       3.894412      0.674717     -1.010689
  O      -3.894412     -0.674717      1.010688
  O      -2.437806      0.053001      3.343959
  O      -2.563453     -2.851030      0.591867
  O      -1.146994     -2.341964      3.216155
  C      -2.212910      1.216306      3.779186
  C      -2.445135      3.830532      0.064320
  C       2.162192      1.229681      3.586032
  C       2.107934      3.818993      0.096654
  C      -2.107934     -3.818993     -0.096654
  C      -2.162192     -1.229681     -3.586033
  C       2.445135     -3.830533     -0.064320
  C       2.212910     -1.216307     -3.779186
  C      -0.020472     -2.767791      3.606531
  C       4.362028      0.105079      0.009500
  C      -4.362027     -0.105079     -0.009500
  C       0.020472      2.767791     -3.606530
  H      -2.518739     -1.575700     -4.576776
  H       3.074101     -4.741109     -0.101811
  H       2.518740      1.575700      4.576776
  H      -3.074101      4.741109      0.101812
  H       2.715855     -1.498102     -4.724586
  H       0.029694      3.478737     -4.455435
  H       2.581547      4.805281     -0.080415
  H       5.455068     -0.078274      0.018390
  H      -2.581547     -4.805281      0.080415
  H      -5.455068      0.078274     -0.018391
  H      -2.715855      1.498102      4.724586
  H      -0.029694     -3.478736      4.455436
60
Coordinates from ORCA-job run E -3004.137262580708
  Zr     -0.172370      2.047185      1.460908
  Zr      0.172370     -2.047185     -1.460908
  Zr      1.716515     -1.120529      1.469815
  Zr     -1.716514      1.120529     -1.469815
  Zr      1.720380      1.022344     -1.534078
  Zr     -1.720380     -1.022344      1.534078
  O      -1.744896      0.778184      0.563562
  O       1.744896     -0.778184     -0.563562
  O      -0.136721     -1.910985      0.557432
  O       0.136721      1.910985     -0.557432
  O      -0.142391     -0.078718     -1.989346
  O       0.142391      0.078718      1.989346
  O      -1.466995      2.093862      3.240580
  O      -1.639070      3.645766      1.023673
  O       1.523322      2.083687      2.883891
  O       1.192341      3.768686      0.963960
  O      -1.192342     -3.768686     -0.963960
  O      -1.523322     -2.083687     -2.883891
  O       1.639070     -3.645767     -1.023673
  O       1.466995     -2.093862     -3.240580
  O       1.109329     -2.460347      3.123424
  O       2.437284      0.041931      3.259111
  O       2.599903     -3.065366      0.939370
  O       3.715929     -0.271817      1.044485
  O      -3.715928      0.271817     -1.044486
  O      -2.599903      3.065366     -0.939370
  O      -2.437283     -0.041931     -3.259111
  O      -1.109328      2.460347     -3.123424
  O       1.147153      2.335484     -3.205802
  O       2.557254      2.842656     -0.592891
  O       2.431915     -0.050928     -3.333816
  O       3.883208      0.674101     -1.010289
  O      -3.883208     -0.674101      1.010289
  O      -2.431915      0.050928      3.333816
  O      -2.557255     -2.842656      0.592891
  O      -1.147153     -2.335484      3.205802
  C      -2.206031      1.213299      3.769082
  C      -2.439133      3.819429      0.063832
  C       2.155458      1.225982      3.577498
  C       2.101444      3.809587      0.095390
  C      -2.101445     -3.809587     -0.095390
  C      -2.155458     -1.225982     -3.577499
  C       2.439133     -3.819429     -0.063832
  C       2.206031     -1.213299     -3.769082
  C      -0.021200     -2.760549      3.596226
  C       4.350656      0.103438      0.008728
  C      -4.350656     -0.103438     -0.008728
  C       0.021200      2.760550     -3.596226
  H      -2.510280     -1.571038     -4.569845
  H       3.069036     -4.730038     -0.101658
  H       2.510280      1.571038      4.569845
  H      -3.069037      4.730037      0.101658
  H       2.708592     -1.495023     -4.715374
  H       0.030579      3.472341     -4.445164
  H       2.573333      4.797064     -0.083286
  H       5.443923     -0.082127      0.016160
  H      -2.573334     -4.797064      0.083286
  H      -5.443923      0.082127     -0.016161
  H      -2.708592      1.495023      4.715374
  H      -0.030579     -3.472340      4.445165
60
Coordinates from ORCA-job run E -3004.137297466491
  Zr     -0.172413      2.046369      1.460182
  Zr      0.172413     -2.046369     -1.460182
  Zr      1.715626     -1.120110      1.469300
  Zr     -1.715625      1.120110     -1.469300
  Zr      1.719652      1.021757     -1.533510
  Zr     -1.719652     -1.021757      1.533510
  O      -1.745426      0.778478      0.563642
  O       1.745426     -0.778478     -0.563642
  O      -0.136830     -1.911505      0.557659
  O       0.136830      1.911504     -0.557659
  O      -0.142369     -0.078830     -1.989979
  O       0.142369      0.078830      1.989979
  O      -1.466282      2.093982      3.240309
  O      -1.638708      3.645400      1.023494
  O       1.522572      2.083690      2.884190
  O       1.192063      3.768515      0.964103
  O      -1.192064     -3.768515     -0.964103
  O      -1.522572     -2.083689     -2.884191
  O       1.638708     -3.645400     -1.023494
  O       1.466282     -2.093982     -3.240309
  O       1.109244     -2.459900      3.123189
  O       2.437231      0.041674      3.258912
  O       2.600028     -3.064633      0.939606
  O       3.715829     -0.272616      1.044398
  O      -3.715829      0.272616     -1.044398
  O      -2.600029      3.064633     -0.939606
  O      -2.437231     -0.041673     -3.258912
  O      -1.109244      2.459900     -3.123189
  O       1.147629      2.335441     -3.205167
  O       2.556914      2.842740     -0.593595
  O       2.431796     -0.050931     -3.333335
  O       3.882953      0.674171     -1.010487
  O      -3.882953     -0.674171      1.010487
  O      -2.431796      0.050931      3.333335
  O      -2.556914     -2.842740      0.593596
  O      -1.147629     -2.335440      3.205168
  C      -2.205614      1.213391      3.769025
  C      -2.439295      3.819021      0.063704
  C       2.154873      1.225718      3.577929
  C       2.100911      3.809875      0.094886
  C      -2.100911     -3.809874     -0.094886
  C      -2.154873     -1.225718     -3.577929
  C       2.439295     -3.819021     -0.063704
  C       2.205614     -1.213391     -3.769025
  C      -0.021507     -2.760575      3.595927
  C       4.350660      0.102741      0.008326
  C      -4.350660     -0.102741     -0.008326
  C       0.021508      2.760576     -3.595927
  H      -2.509195     -1.570382     -4.570417
  H       3.069311     -4.729380     -0.101676
  H       2.509195      1.570383      4.570416
  H      -3.069312      4.729379      0.101676
  H       2.707903     -1.494994     -4.715338
  H       0.030894      3.472436     -4.444630
  H       2.572186      4.797416     -0.084083
  H       5.443690     -0.083308      0.015323
  H      -2.572187     -4.797416      0.084083
  H      -5.443689      0.083307     -0.015324
  H      -2.707903      1.494994      4.715338
  H      -0.030894     -3.472435      4.444631
60
Coordinates from ORCA-job run E -3004.137337228308
  Zr     -0.172699      2.044914      1.458858
  Zr      0.172699     -2.044914     -1.458858
  Zr      1.713885     -1.119541      1.468425
  Zr     -1.713885      1.119541     -1.468425
  Zr      1.718281      1.020607     -1.532684
  Zr     -1.718281     -1.020607      1.532684
  O      -1.746948      0.779526      0.564107
  O       1.746948     -0.779526     -0.564106
  O      -0.136912     -1.913086      0.558409
  O       0.136912      1.913086     -0.558409
  O      -0.142146     -0.078969     -1.991928
  O       0.142146      0.078969      1.991928
  O      -1.465172      2.094544      3.240830
  O      -1.638473      3.645579      1.022876
  O       1.521221      2.083975      2.885930
  O       1.192240      3.768868      0.964543
  O      -1.192240     -3.768868     -0.964543
  O      -1.521221     -2.083975     -2.885930
  O       1.638473     -3.645579     -1.022876
  O       1.465172     -2.094544     -3.240830
  O       1.108879     -2.459475      3.123708
  O       2.437803      0.041639      3.259129
  O       2.601086     -3.063969      0.940060
  O       3.716726     -0.274638      1.044126
  O      -3.716725      0.274637     -1.044126
  O      -2.601086      3.063969     -0.940060
  O      -2.437802     -0.041639     -3.259130
  O      -1.108879      2.459476     -3.123707
  O       1.148739      2.336250     -3.204646
  O       2.556556      2.843990     -0.595369
  O       2.432162     -0.051463     -3.333149
  O       3.883421      0.674561     -1.010625
  O      -3.883421     -0.674561      1.010625
  O      -2.432162      0.051463      3.333149
  O      -2.556556     -2.843990      0.595369
  O      -1.148739     -2.336250      3.204646
  C      -2.205130      1.213933      3.769778
  C      -2.440258      3.818931      0.063383
  C       2.153954      1.225418      3.579595
  C       2.100150      3.811244      0.093721
  C      -2.100150     -3.811244     -0.093721
  C      -2.153954     -1.225417     -3.579596
  C       2.440258     -3.818931     -0.063383
  C       2.205130     -1.213933     -3.769778
  C      -0.022286     -2.761280      3.596076
  C       4.351513      0.101161      0.007482
  C      -4.351512     -0.101161     -0.007482
  C       0.022286      2.761280     -3.596075
  H      -2.507103     -1.569164     -4.572495
  H       3.070653     -4.728671     -0.101828
  H       2.507103      1.569164      4.572495
  H      -3.070654      4.728670      0.101828
  H       2.706699     -1.495183     -4.716256
  H       0.031645      3.473421     -4.444183
  H       2.569973      4.799021     -0.085965
  H       5.444053     -0.086063      0.013436
  H      -2.569973     -4.799020      0.085964
  H      -5.444052      0.086063     -0.013436
  H      -2.706699      1.495183      4.716256
  H      -0.031645     -3.473420      4.444183
60
Coordinates from ORCA-job run E -3004.137344564406
  Zr     -0.172933      2.044629      1.458614
  Zr      0.172933     -2.044629     -1.458614
  Zr      1.713450     -1.119597      1.468270
  Zr     -1.713450      1.119597     -1.468270
  Zr      1.717946      1.020332     -1.532691
  Zr     -1.717946     -1.020332      1.532691
  O      -1.747420      0.780041      0.564412
  O       1.747420     -0.780041     -0.564412
  O      -0.136767     -1.913628      0.558746
  O       0.136767      1.913628     -0.558746
  O      -0.141913     -0.078892     -1.992651
  O       0.141913      0.078892      1.992651
  O      -1.465001      2.094760      3.241361
  O      -1.638528      3.645906      1.022527
  O       1.520787      2.084085      2.886730
  O       1.192650      3.768882      0.964767
  O      -1.192650     -3.768882     -0.964767
  O      -1.520787     -2.084085     -2.886730
  O       1.638527     -3.645906     -1.022527
  O       1.465001     -2.094760     -3.241360
  O       1.108645     -2.459431      3.124186
  O       2.438195      0.041914      3.259075
  O       2.601636     -3.064084      0.940129
  O       3.717202     -0.275392      1.043979
  O      -3.717202      0.275392     -1.043980
  O      -2.601636      3.064084     -0.940129
  O      -2.438195     -0.041914     -3.259076
  O      -1.108645      2.459431     -3.124185
  O       1.149047      2.336803     -3.204761
  O       2.556452      2.844606     -0.596026
  O       2.432465     -0.051857     -3.333283
  O       3.883651      0.674887     -1.010349
  O      -3.883651     -0.674887      1.010349
  O      -2.432465      0.051857      3.333283
  O      -2.556453     -2.844606      0.596026
  O      -1.149047     -2.336803      3.204761
  C      -2.205034      1.214150      3.770104
  C      -2.440611      3.818990      0.063268
  C       2.153709      1.225393      3.579954
  C       2.099990      3.811515      0.093406
  C      -2.099990     -3.811515     -0.093407
  C      -2.153708     -1.225393     -3.579955
  C       2.440611     -3.818990     -0.063268
  C       2.205034     -1.214150     -3.770103
  C      -0.022548     -2.761552      3.596222
  C       4.351673      0.100768      0.007345
  C      -4.351673     -0.100768     -0.007345
  C       0.022548      2.761552     -3.596222
  H      -2.506562     -1.568854     -4.573095
  H       3.071209     -4.728606     -0.101935
  H       2.506563      1.568854      4.573095
  H      -3.071209      4.728605      0.101935
  H       2.706402     -1.495264     -4.716752
  H       0.031854      3.473874     -4.444205
  H       2.569389      4.799493     -0.086491
  H       5.444189     -0.086818      0.012944
  H      -2.569390     -4.799493      0.086490
  H      -5.444189      0.086818     -0.012944
  H      -2.706402      1.495264      4.716753
  H      -0.031854     -3.473873      4.444206
60
Coordinates from ORCA-job run E -3004.137350488077
  Zr     -0.173430      2.044447      1.458492
  Zr      0.173430     -2.044447     -1.458493
  Zr      1.713002     -1.119952      1.468185
  Zr     -1.713002      1.119952     -1.468185
  Zr      1.717601      1.020062     -1.533011
  Zr     -1.717601     -1.020062      1.533011
  O      -1.747883      0.780859      0.564952
  O       1.747883     -0.780859     -0.564952
  O      -0.136367     -1.914231      0.559256
  O       0.136367      1.914230     -0.559256
  O      -0.141410     -0.078642     -1.993552
  O       0.141410      0.078642      1.993552
  O      -1.464929      2.095099      3.242215
  O      -1.638601      3.646449      1.021989
  O       1.520002      2.084207      2.887837
  O       1.193356      3.768531      0.965183
  O      -1.193356     -3.768530     -0.965183
  O      -1.520002     -2.084207     -2.887837
  O       1.638600     -3.646449     -1.021988
  O       1.464929     -2.095099     -3.242215
  O       1.108300     -2.459349      3.124936
  O       2.438784      0.042425      3.258609
  O       2.602421     -3.064443      0.940230
  O       3.717750     -0.276582      1.043742
  O      -3.717750      0.276581     -1.043742
  O      -2.602421      3.064443     -0.940230
  O      -2.438784     -0.042425     -3.258609
  O      -1.108300      2.459349     -3.124936
  O       1.149435      2.337624     -3.205098
  O       2.556189      2.845397     -0.597067
  O       2.432970     -0.052466     -3.333491
  O       3.883710      0.675538     -1.009717
  O      -3.883710     -0.675538      1.009717
  O      -2.432970      0.052466      3.333491
  O      -2.556190     -2.845397      0.597067
  O      -1.149435     -2.337624      3.205098
  C      -2.204953      1.214444      3.770486
  C      -2.441010      3.819086      0.063096
  C       2.153327      1.225369      3.580095
  C       2.099757      3.811535      0.093049
  C      -2.099757     -3.811535     -0.093049
  C      -2.153327     -1.225369     -3.580096
  C       2.441009     -3.819086     -0.063096
  C       2.204953     -1.214444     -3.770486
  C      -0.022879     -2.761835      3.596435
  C       4.351582      0.100351      0.007284
  C      -4.351582     -0.100351     -0.007284
  C       0.022879      2.761835     -3.596435
  H      -2.505980     -1.568415     -4.573591
  H       3.071911     -4.728597     -0.102113
  H       2.505981      1.568415      4.573591
  H      -3.071911      4.728597      0.102113
  H       2.706096     -1.495337     -4.717436
  H       0.032056      3.474439     -4.444312
  H       2.568659      4.799869     -0.086978
  H       5.444174     -0.087563      0.012378
  H      -2.568660     -4.799869      0.086977
  H      -5.444173      0.087563     -0.012379
  H      -2.706096      1.495337      4.717437
  H      -0.032056     -3.474438      4.444313
60
Coordinates from ORCA-job run E -3004.137353695574
  Zr     -0.173799      2.044505      1.458565
  Zr      0.173799     -2.044505     -1.458565
  Zr      1.712874     -1.120314      1.468231
  Zr     -1.712874      1.120314     -1.468231
  Zr      1.717503      1.019994     -1.533382
  Zr     -1.717503     -1.019994      1.533382
  O      -1.747911      0.781281      0.565253
  O       1.747911     -0.781281     -0.565253
  O      -0.136052     -1.914339      0.559502
  O       0.136052      1.914339     -0.559502
  O      -0.141053     -0.078441     -1.993823
  O       0.141053      0.078441      1.993823
  O      -1.465022      2.095305      3.242581
  O      -1.638599      3.646695      1.021755
  O       1.519415      2.084217      2.888301
  O       1.193642      3.768045      0.965424
  O      -1.193642     -3.768045     -0.965424
  O      -1.519415     -2.084217     -2.888302
  O       1.638599     -3.646695     -1.021754
  O       1.465022     -2.095305     -3.242581
  O       1.108168     -2.459281      3.125253
  O       2.438975      0.042648      3.258069
  O       2.602707     -3.064711      0.940336
  O       3.717830     -0.277289      1.043594
  O      -3.717830      0.277289     -1.043594
  O      -2.602707      3.064711     -0.940336
  O      -2.438975     -0.042648     -3.258070
  O      -1.108168      2.459281     -3.125253
  O       1.149596      2.337930     -3.205363
  O       2.555914      2.845652     -0.597695
  O       2.433207     -0.052717     -3.333559
  O       3.883429      0.675922     -1.009338
  O      -3.883429     -0.675922      1.009339
  O      -2.433207      0.052717      3.333559
  O      -2.555914     -2.845652      0.597695
  O      -1.149596     -2.337930      3.205363
  C      -2.204990      1.214571      3.770619
  C      -2.441117      3.819177      0.063005
  C       2.153082      1.225325      3.579959
  C       2.099593      3.811337      0.092912
  C      -2.099593     -3.811336     -0.092912
  C      -2.153081     -1.225325     -3.579960
  C       2.441117     -3.819177     -0.063005
  C       2.204991     -1.214571     -3.770619
  C      -0.022987     -2.761896      3.596573
  C       4.351330      0.100203      0.007287
  C      -4.351330     -0.100203     -0.007287
  C       0.022988      2.761896     -3.596573
  H      -2.505827     -1.568122     -4.573572
  H       3.072132     -4.728660     -0.102196
  H       2.505828      1.568122      4.573571
  H      -3.072133      4.728659      0.102196
  H       2.706066     -1.495332     -4.717700
  H       0.032065      3.474607     -4.444424
  H       2.568317      4.799843     -0.086985
  H       5.443988     -0.087672      0.012120
  H      -2.568317     -4.799843      0.086985
  H      -5.443988      0.087672     -0.012120
  H      -2.706066      1.495332      4.717700
  H      -0.032065     -3.474606      4.444424
60
Coordinates from ORCA-job run E -3004.137192657818
  Zr     -0.181347      2.045075      1.459681
  Zr      0.181347     -2.045075     -1.459681
  Zr      1.709814     -1.127372      1.468693
  Zr     -1.709814      1.127372     -1.468693
  Zr      1.715078      1.018295     -1.540473
  Zr     -1.715078     -1.018295      1.540473
  O      -1.748681      0.789820      0.571280
  O       1.748680     -0.789820     -0.571280
  O      -0.129833     -1.916695      0.564498
  O       0.129833      1.916694     -0.564498
  O      -0.133901     -0.074454     -1.999514
  O       0.133901      0.074454      1.999514
  O      -1.466727      2.099562      3.249571
  O      -1.638165      3.651460      1.016957
  O       1.506548      2.084014      2.898394
  O       1.199090      3.757832      0.970704
  O      -1.199091     -3.757832     -0.970703
  O      -1.506548     -2.084014     -2.898393
  O       1.638165     -3.651462     -1.016957
  O       1.466727     -2.099562     -3.249571
  O       1.105555     -2.457373      3.131501
  O       2.442969      0.046772      3.246570
  O       2.608234     -3.069743      0.942754
  O       3.719505     -0.292718      1.040019
  O      -3.719504      0.292718     -1.040019
  O      -2.608234      3.069743     -0.942753
  O      -2.442969     -0.046772     -3.246570
  O      -1.105554      2.457373     -3.131502
  O       1.153119      2.343696     -3.210371
  O       2.549543      2.851175     -0.611188
  O       2.438101     -0.057685     -3.334407
  O       3.877330      0.684022     -1.001870
  O      -3.877330     -0.684021      1.001871
  O      -2.438101      0.057685      3.334407
  O      -2.549544     -2.851174      0.611187
  O      -1.153119     -2.343697      3.210370
  C      -2.205947      1.217291      3.773308
  C      -2.443312      3.821149      0.060974
  C       2.147731      1.223850      3.577968
  C       2.095602      3.807987      0.089756
  C      -2.095603     -3.807987     -0.089756
  C      -2.147731     -1.223850     -3.577967
  C       2.443312     -3.821150     -0.060973
  C       2.205946     -1.217290     -3.773308
  C      -0.025326     -2.762936      3.599587
  C       4.346592      0.096508      0.006551
  C      -4.346592     -0.096507     -0.006551
  C       0.025327      2.762935     -3.599588
  H      -2.502095     -1.561040     -4.573923
  H       3.076488     -4.729912     -0.103620
  H       2.502094      1.561040      4.573924
  H      -3.076488      4.729911      0.103622
  H       2.705622     -1.495371     -4.722826
  H       0.032410      3.477513     -4.446896
  H       2.560056      4.799997     -0.087505
  H       5.440288     -0.090766      0.005557
  H      -2.560058     -4.799996      0.087505
  H      -5.440288      0.090769     -0.005555
  H      -2.705622      1.495372      4.722826
  H      -0.032409     -3.477515      4.446894
60
Coordinates from ORCA-job run E -3004.137351747851
  Zr     -0.176328      2.044723      1.458941
  Zr      0.176328     -2.044723     -1.458941
  Zr      1.711870     -1.122680      1.468376
  Zr     -1.711869      1.122680     -1.468376
  Zr      1.716667      1.019456     -1.535782
  Zr     -1.716667     -1.019456      1.535782
  O      -1.748022      0.783950      0.567153
  O       1.748022     -0.783950     -0.567153
  O      -0.134046     -1.914895      0.561041
  O       0.134046      1.914895     -0.561041
  O      -0.138751     -0.077175     -1.995420
  O       0.138751      0.077175      1.995420
  O      -1.465760      2.096680      3.244582
  O      -1.638359      3.648154      1.020253
  O       1.514810      2.084087      2.891680
  O       1.195351      3.764377      0.967231
  O      -1.195352     -3.764377     -0.967231
  O      -1.514810     -2.084087     -2.891680
  O       1.638359     -3.648155     -1.020253
  O       1.465760     -2.096680     -3.244582
  O       1.107421     -2.458596      3.127134
  O       2.440133      0.043947      3.254020
  O       2.604198     -3.066389      0.941202
  O       3.718224     -0.282666      1.042309
  O      -3.718224      0.282665     -1.042309
  O      -2.604198      3.066389     -0.941202
  O      -2.440133     -0.043947     -3.254020
  O      -1.107420      2.458596     -3.127134
  O       1.150605      2.339513     -3.207063
  O       2.553582      2.847440     -0.602410
  O       2.434705     -0.054207     -3.333740
  O       3.881098      0.678601     -1.006911
  O      -3.881098     -0.678600      1.006911
  O      -2.434705      0.054207      3.333740
  O      -2.553583     -2.847440      0.602410
  O      -1.150605     -2.339514      3.207063
  C      -2.205465      1.215434      3.771459
  C      -2.441708      3.819973      0.062337
  C       2.151196      1.224810      3.579341
  C       2.098220      3.810241      0.091868
  C      -2.098221     -3.810240     -0.091868
  C      -2.151196     -1.224810     -3.579341
  C       2.441708     -3.819973     -0.062336
  C       2.205465     -1.215434     -3.771459
  C      -0.023604     -2.762166      3.597674
  C       4.349734      0.098914      0.006965
  C      -4.349734     -0.098914     -0.006965
  C       0.023605      2.762166     -3.597675
  H      -2.504628     -1.565598     -4.573645
  H       3.073319     -4.729211     -0.102602
  H       2.504628      1.565598      4.573645
  H      -3.073319      4.729210      0.102603
  H       2.706130     -1.495315     -4.719226
  H       0.032005      3.475395     -4.445329
  H       2.565514      4.799879     -0.086905
  H       5.442692     -0.088550      0.009763
  H      -2.565515     -4.799879      0.086904
  H      -5.442692      0.088551     -0.009763
  H      -2.706129      1.495314      4.719226
  H      -0.032004     -3.475395      4.445328
60
Coordinates from ORCA-job run E -3004.137360679543
  Zr     -0.175146      2.044696      1.458809
  Zr      0.175146     -2.044696     -1.458809
  Zr      1.712422     -1.121589      1.468313
  Zr     -1.712421      1.121589     -1.468313
  Zr      1.717079      1.019767     -1.534703
  Zr     -1.717079     -1.019767      1.534703
  O      -1.747735      0.782425      0.566101
  O       1.747735     -0.782425     -0.566101
  O      -0.135076     -1.914319      0.560130
  O       0.135076      1.914319     -0.560130
  O      -0.139958     -0.077839     -1.994251
  O       0.139958      0.077839      1.994251
  O      -1.465677      2.095970      3.243249
  O      -1.638446      3.647305      1.021165
  O       1.516754      2.084043      2.890022
  O       1.194279      3.765891      0.966263
  O      -1.194279     -3.765891     -0.966263
  O      -1.516754     -2.084043     -2.890022
  O       1.638446     -3.647305     -1.021165
  O       1.465677     -2.095970     -3.243249
  O       1.107941     -2.458961      3.125961
  O       2.439237      0.043167      3.255796
  O       2.603056     -3.065642      0.940833
  O       3.717838     -0.280230      1.042809
  O      -3.717838      0.280229     -1.042808
  O      -2.603056      3.065642     -0.940833
  O      -2.439237     -0.043166     -3.255796
  O      -1.107941      2.458961     -3.125961
  O       1.149900      2.338333     -3.206333
  O       2.554484      2.846485     -0.600290
  O       2.433803     -0.053262     -3.333609
  O       3.881865      0.677127     -1.008215
  O      -3.881865     -0.677127      1.008215
  O      -2.433802      0.053262      3.333609
  O      -2.554485     -2.846485      0.600290
  O      -1.149900     -2.338333      3.206333
  C      -2.205465      1.214974      3.771015
  C      -2.441278      3.819794      0.062686
  C       2.152022      1.225019      3.579719
  C       2.098855      3.810817      0.092361
  C      -2.098855     -3.810817     -0.092361
  C      -2.152022     -1.225019     -3.579719
  C       2.441277     -3.819794     -0.062685
  C       2.205465     -1.214975     -3.771015
  C      -0.023112     -2.761961      3.597287
  C       4.350521      0.099486      0.007031
  C      -4.350521     -0.099486     -0.007031
  C       0.023112      2.761961     -3.597288
  H      -2.505330     -1.566653     -4.573564
  H       3.072474     -4.729156     -0.102327
  H       2.505329      1.566653      4.573564
  H      -3.072474      4.729156      0.102327
  H       2.706408     -1.495315     -4.718316
  H       0.031842      3.474817     -4.445047
  H       2.566892      4.799842     -0.086652
  H       5.443294     -0.087888      0.010759
  H      -2.566893     -4.799842      0.086651
  H      -5.443294      0.087889     -0.010759
  H      -2.706407      1.495315      4.718316
  H      -0.031842     -3.474816      4.445047
60
Coordinates from ORCA-job run E -3004.137361726665
  Zr     -0.175236      2.044719      1.458838
  Zr      0.175236     -2.044719     -1.458838
  Zr      1.712410     -1.121676      1.468310
  Zr     -1.712410      1.121676     -1.468310
  Zr      1.717054      1.019761     -1.534795
  Zr     -1.717054     -1.019761      1.534795
  O      -1.747671      0.782419      0.566109
  O       1.747671     -0.782419     -0.566109
  O      -0.135049     -1.914255      0.560116
  O       0.135049      1.914255     -0.560116
  O      -0.139934     -0.077820     -1.994188
  O       0.139934      0.077820      1.994188
  O      -1.465814      2.095994      3.243219
  O      -1.638479      3.647318      1.021217
  O       1.516565      2.083998      2.890154
  O       1.194184      3.765765      0.966187
  O      -1.194184     -3.765765     -0.966187
  O      -1.516565     -2.083998     -2.890154
  O       1.638479     -3.647318     -1.021217
  O       1.465814     -2.095995     -3.243219
  O       1.107969     -2.459014      3.125935
  O       2.439094      0.043126      3.255697
  O       2.602973     -3.065745      0.940855
  O       3.717834     -0.280425      1.042729
  O      -3.717833      0.280424     -1.042729
  O      -2.602973      3.065745     -0.940855
  O      -2.439094     -0.043125     -3.255697
  O      -1.107969      2.459014     -3.125935
  O       1.149852      2.338255     -3.206440
  O       2.554358      2.846550     -0.600473
  O       2.433784     -0.053228     -3.333656
  O       3.881713      0.677050     -1.008225
  O      -3.881713     -0.677050      1.008226
  O      -2.433784      0.053228      3.333656
  O      -2.554358     -2.846549      0.600473
  O      -1.149852     -2.338256      3.206440
  C      -2.205565      1.214990      3.771061
  C      -2.441274      3.819904      0.062692
  C       2.151923      1.224969      3.579789
  C       2.098777      3.810854      0.092272
  C      -2.098778     -3.810854     -0.092272
  C      -2.151924     -1.224969     -3.579789
  C       2.441274     -3.819904     -0.062692
  C       2.205565     -1.214990     -3.771061
  C      -0.023072     -2.761971      3.597382
  C       4.350519      0.099389      0.006970
  C      -4.350519     -0.099390     -0.006970
  C       0.023073      2.761971     -3.597382
  H      -2.505311     -1.566508     -4.573616
  H       3.072438     -4.729271     -0.102315
  H       2.505310      1.566508      4.573616
  H      -3.072438      4.729271      0.102315
  H       2.706537     -1.495333     -4.718327
  H       0.031793      3.474788     -4.445153
  H       2.566784      4.799892     -0.086625
  H       5.443289     -0.087890      0.010631
  H      -2.566785     -4.799892      0.086625
  H      -5.443289      0.087891     -0.010631
  H      -2.706537      1.495332      4.718328
  H      -0.031792     -3.474788      4.445153
