12
Coordinates from ORCA-job run E -732.592191956444
  Al         -0.24094750208187      1.52922277444166      2.57468666241982
  Al         -0.00021188494624     -0.00060413325251     -0.10296071150068
  H           0.78452565421556     -0.98993230713154      1.04389663986591
  H          -1.15868758330906     -0.82638211186557     -0.78329345670210
  H          -0.77181453188047      0.99869686686397      1.04407697284508
  H          -1.51648374043886      2.14363108314870      3.26945534629811
  H           0.00202547533529      0.00016500764868      3.27642736942554
  H           1.15012647447382      0.81944645534332     -0.80368221608175
  Al          0.26756220720624     -1.52644180532605      2.57730113550500
  H           1.55508669610877     -2.12033831835130      3.26777123328997
  H          -1.15580559966826     -2.18690376288841      2.40834917013786
  H           1.19156433498512      2.16775025136906      2.39833185449716
