12
Coordinates from ORCA-job run E -732.591661814529
  Al     -0.229465      1.518719      2.565333
  Al      0.000121     -0.000507     -0.083536
  H       0.872783     -0.936113      1.069964
  H      -1.104267     -0.908414     -0.771134
  H      -0.863230      0.941627      1.071787
  H      -1.473542      2.184480      3.291334
  H       0.004056      0.000973      3.330927
  H       1.098729      0.903679     -0.785103
  Al      0.255690     -1.515992      2.569382
  H       1.513180     -2.162656      3.289507
  H      -1.180669     -2.143678      2.318759
  H       1.213553      2.126193      2.303140
12
Coordinates from ORCA-job run E -732.591823248524
  Al     -0.229962      1.516923      2.564715
  Al      0.000119     -0.000533     -0.082401
  H       0.868520     -0.935210      1.070487
  H      -1.102672     -0.905489     -0.768664
  H      -0.858819      0.940907      1.072206
  H      -1.471626      2.180931      3.289129
  H       0.004109      0.000953      3.326731
  H       1.097120      0.900585     -0.782796
  Al      0.256151     -1.514201      2.568662
  H       1.511179     -2.159161      3.287228
  H      -1.177453     -2.140403      2.320248
  H       1.210275      2.123007      2.304813
12
Coordinates from ORCA-job run E -732.592019521980
  Al     -0.231915      1.512176      2.563417
  Al      0.000099     -0.000611     -0.079902
  H       0.854856     -0.933223      1.071752
  H      -1.099662     -0.896996     -0.763041
  H      -0.844652      0.939551      1.073121
  H      -1.467951      2.171403      3.283646
  H       0.004254      0.000889      3.314041
  H       1.094011      0.891502     -0.777806
  Al      0.257990     -1.509461      2.567025
  H       1.507236     -2.149778      3.281504
  H      -1.169007     -2.132306      2.325694
  H       1.201681      2.115165      2.310909
12
Coordinates from ORCA-job run E -732.592036921958
  Al     -0.232643      1.512124      2.563764
  Al      0.000084     -0.000628     -0.080439
  H       0.851932     -0.933776      1.071548
  H      -1.100775     -0.895703     -0.763804
  H      -0.841598      0.940280      1.072823
  H      -1.469177      2.170894      3.283748
  H       0.004261      0.000872      3.312049
  H       1.095053      0.890042     -0.778807
  Al      0.258702     -1.509403      2.567294
  H       1.508407     -2.149281      3.281558
  H      -1.168583     -2.132711      2.327604
  H       1.201277      2.115600      2.313023
12
Coordinates from ORCA-job run E -732.592106142189
  Al     -0.237854      1.513686      2.567095
  Al     -0.000024     -0.000727     -0.085991
  H       0.832623     -0.939355      1.069247
  H      -1.110499     -0.886644     -0.771672
  H      -0.821387      0.947070      1.069892
  H      -1.479678      2.169565      3.285687
  H       0.004243      0.000757      3.300237
  H       1.104197      0.879840     -0.788438
  Al      0.263842     -1.510914      2.570121
  H       1.518548     -2.148014      3.283224
  H      -1.166740     -2.138886      2.342029
  H       1.199669      2.121930      2.328930
12
Coordinates from ORCA-job run E -732.592116490566
  Al     -0.239003      1.515079      2.568286
  Al     -0.000049     -0.000741     -0.088159
  H       0.828682     -0.941884      1.068034
  H      -1.113323     -0.883652     -0.774219
  H      -0.817230      0.949871      1.068547
  H      -1.482393      2.169780      3.286130
  H       0.004187      0.000724      3.298517
  H       1.106834      0.876617     -0.791449
  Al      0.265009     -1.512294      2.571220
  H       1.521181     -2.148242      3.283662
  H      -1.165969     -2.141851      2.346253
  H       1.199014      2.124902      2.333539
12
Coordinates from ORCA-job run E -732.592140138797
  Al     -0.241832      1.520036      2.571848
  Al     -0.000111     -0.000768     -0.094857
  H       0.818471     -0.950516      1.063765
  H      -1.121531     -0.873501     -0.781221
  H      -0.806418      0.959203      1.063947
  H      -1.489624      2.170128      3.286547
  H       0.003947      0.000618      3.294809
  H       1.114454      0.865925     -0.799781
  Al      0.267945     -1.517219      2.574570
  H       1.528186     -2.148626      3.284168
  H      -1.162775     -2.151629      2.359094
  H       1.196228      2.134659      2.347471
12
Coordinates from ORCA-job run E -732.592149468915
  Al     -0.242717      1.522775      2.573434
  Al     -0.000129     -0.000770     -0.097988
  H       0.814065     -0.955660      1.061147
  H      -1.125759     -0.867312     -0.783794
  H      -0.801733      0.964615      1.061211
  H      -1.492785      2.169416      3.285801
  H       0.003766      0.000558      3.293394
  H       1.118361      0.859583     -0.802989
  Al      0.268923     -1.519948      2.576092
  H       1.531238     -2.147925      3.283545
  H      -1.160628     -2.157041      2.365812
  H       1.194338      2.140021      2.354695
12
Coordinates from ORCA-job run E -732.592156306479
  Al     -0.242793      1.524644      2.574201
  Al     -0.000129     -0.000761     -0.099659
  H       0.811158     -0.960108      1.058843
  H      -1.129357     -0.861873     -0.784455
  H      -0.798642      0.969175      1.058868
  H      -1.495046      2.167561      3.284269
  H       0.003576      0.000505      3.292217
  H       1.121707      0.854144     -0.804083
  Al      0.269096     -1.521819      2.576842
  H       1.533422     -2.146051      3.282169
  H      -1.158982     -2.161338      2.370970
  H       1.192931      2.144230      2.360179
12
Coordinates from ORCA-job run E -732.592163730783
  Al     -0.242418      1.526129      2.574518
  Al     -0.000120     -0.000745     -0.100583
  H       0.807898     -0.965120      1.056257
  H      -1.133920     -0.855656     -0.784024
  H      -0.795206      0.974235      1.056276
  H      -1.497846      2.164186      3.281903
  H       0.003336      0.000446      3.290288
  H       1.126001      0.848008     -0.804074
  Al      0.268837     -1.523307      2.577158
  H       1.536141     -2.142625      3.279993
  H      -1.157695     -2.165946      2.376571
  H       1.191932      2.148702      2.366078
12
Coordinates from ORCA-job run E -732.592175578724
  Al     -0.241562      1.528064      2.574637
  Al     -0.000100     -0.000720     -0.101436
  H       0.801311     -0.973889      1.051799
  H      -1.142830     -0.844583     -0.782603
  H      -0.788317      0.983051      1.051817
  H      -1.503622      2.157032      3.277344
  H       0.002908      0.000350      3.285774
  H       1.134457      0.837105     -0.803367
  Al      0.268174     -1.525234      2.577270
  H       1.541769     -2.135364      3.275736
  H      -1.156227     -2.173923      2.386699
  H       1.190978      2.156421      2.376690
12
Coordinates from ORCA-job run E -732.592186181860
  Al     -0.240736      1.529564      2.574528
  Al     -0.000081     -0.000702     -0.101960
  H       0.792975     -0.983087      1.047225
  H      -1.153116     -0.832693     -0.781095
  H      -0.779657      0.992297      1.047226
  H      -1.510796      2.148609      3.272389
  H       0.002467      0.000261      3.279794
  H       1.144290      0.825365     -0.802597
  Al      0.267523     -1.526703      2.577141
  H       1.548784     -2.126816      3.271017
  H      -1.155388     -2.182313      2.398103
  H       1.190675      2.164529      2.388588
12
Coordinates from ORCA-job run E -732.592190633063
  Al     -0.240543      1.529974      2.574431
  Al     -0.000085     -0.000698     -0.102226
  H       0.787442     -0.987799      1.044965
  H      -1.158954     -0.826572     -0.780784
  H      -0.773967      0.997054      1.044937
  H      -1.515351      2.143934      3.269964
  H       0.002258      0.000220      3.275867
  H       1.149929      0.819261     -0.802628
  Al      0.267379     -1.527085      2.577010
  H       1.553279     -2.122007      3.268620
  H      -1.155459     -2.186595      2.404730
  H       1.191011      2.168623      2.395473
12
Coordinates from ORCA-job run E -732.592191337331
  Al     -0.240717      1.529765      2.574446
  Al     -0.000103     -0.000697     -0.102354
  H       0.786322     -0.988193      1.044814
  H      -1.159520     -0.826313     -0.781263
  H      -0.772868      0.997457      1.044780
  H      -1.516135      2.143539      3.269963
  H       0.002255      0.000215      3.275235
  H       1.150525      0.818960     -0.803045
  Al      0.267513     -1.526877      2.577003
  H       1.554105     -2.121487      3.268543
  H      -1.155772     -2.186810      2.405747
  H       1.191334      2.168750      2.396492
12
Coordinates from ORCA-job run E -732.592191509219
  Al     -0.240833      1.529564      2.574474
  Al     -0.000121     -0.000693     -0.102443
  H       0.786284     -0.988017      1.044909
  H      -1.159074     -0.826896     -0.781688
  H      -0.772893      0.997261      1.044885
  H      -1.516040      2.143827      3.270209
  H       0.002273      0.000215      3.275436
  H       1.150144      0.819528     -0.803325
  Al      0.267587     -1.526685      2.577021
  H       1.554072     -2.121652      3.268720
  H      -1.155946     -2.186424      2.405740
  H       1.191486      2.168282      2.396422
12
Coordinates from ORCA-job run E -732.592191697084
  Al     -0.240950      1.529311      2.574523
  Al     -0.000150     -0.000683     -0.102614
  H       0.786161     -0.988070      1.044875
  H      -1.158459     -0.827510     -0.782321
  H      -0.772893      0.997254      1.044881
  H      -1.515909      2.144093      3.270390
  H       0.002278      0.000211      3.275832
  H       1.149637      0.820151     -0.803679
  Al      0.267637     -1.526450      2.577063
  H       1.554062     -2.121679      3.268795
  H      -1.156103     -2.186014      2.406030
  H       1.191629      2.167695      2.396584
12
Coordinates from ORCA-job run E -732.592191852509
  Al     -0.241012      1.529128      2.574588
  Al     -0.000184     -0.000665     -0.102840
  H       0.785726     -0.988622      1.044578
  H      -1.158112     -0.827620     -0.782960
  H      -0.772621      0.997707      1.044629
  H      -1.515968      2.144050      3.270283
  H       0.002249      0.000201      3.276198
  H       1.149408      0.820317     -0.803973
  Al      0.267630     -1.526292      2.577128
  H       1.554273     -2.121318      3.268582
  H      -1.156142     -2.185951      2.406880
  H       1.191691      2.167375      2.397267
12
Coordinates from ORCA-job run E -732.592191920003
  Al     -0.240997      1.529116      2.574638
  Al     -0.000203     -0.000649     -0.102983
  H       0.785196     -0.989317      1.044210
  H      -1.158237     -0.827185     -0.783254
  H      -0.772212      0.998310      1.044300
  H      -1.516193      2.143771      3.269963
  H       0.002195      0.000191      3.276322
  H       1.149598      0.819964     -0.804034
  Al      0.267587     -1.526298      2.577188
  H       1.554607     -2.120812      3.268220
  H      -1.156048     -2.186267      2.407763
  H       1.191648      2.167486      2.398027
12
Coordinates from ORCA-job run E -732.592191937586
  Al     -0.240968      1.529169      2.574660
  Al     -0.000207     -0.000639     -0.103008
  H       0.784897     -0.989668      1.044027
  H      -1.158460     -0.826796     -0.783275
  H      -0.771978      0.998602      1.044140
  H      -1.516355      2.143604      3.269734
  H       0.002149      0.000183      3.276318
  H       1.149838      0.819646     -0.803954
  Al      0.267562     -1.526360      2.577223
  H       1.554818     -2.120548      3.268000
  H      -1.155950     -2.186554      2.408148
  H       1.191595      2.167670      2.398346
12
Coordinates from ORCA-job run E -732.592191946737
  Al     -0.240953      1.529206      2.574673
  Al     -0.000209     -0.000626     -0.102994
  H       0.784714     -0.989829      1.043945
  H      -1.158601     -0.826562     -0.783266
  H      -0.771867      0.998701      1.044083
  H      -1.516440      2.143565      3.269590
  H       0.002102      0.000177      3.276337
  H       1.149997      0.819491     -0.803846
  Al      0.267556     -1.526407      2.577255
  H       1.554951     -2.120425      3.267876
  H      -1.155879     -2.186740      2.408292
  H       1.191569      2.167759      2.398416
12
Coordinates from ORCA-job run E -732.592191956444
  Al     -0.240948      1.529223      2.574687
  Al     -0.000212     -0.000604     -0.102961
  H       0.784526     -0.989932      1.043897
  H      -1.158688     -0.826382     -0.783293
  H      -0.771815      0.998697      1.044077
  H      -1.516484      2.143631      3.269455
  H       0.002025      0.000165      3.276427
  H       1.150126      0.819446     -0.803682
  Al      0.267562     -1.526442      2.577301
  H       1.555087     -2.120338      3.267771
  H      -1.155806     -2.186904      2.408349
  H       1.191564      2.167750      2.398332
