12
Coordinates from ORCA-job run E -731.684587756231
  Al     -0.242180      1.529540      2.572820
  Al     -0.000080     -0.000610     -0.097100
  H       0.775640     -0.983030      1.050510
  H      -1.153870     -0.827490     -0.769030
  H      -0.763520      0.990640      1.051100
  H      -1.511870      2.138480      3.268160
  H      -0.287760     -0.072280      3.276320
  H       1.146010      0.821110     -0.788210
  Al      0.268670     -1.526660      2.575530
  H       1.550340     -2.115460      3.266240
  H      -1.151900     -2.176570      2.398580
  H       1.187050      2.158020      2.387550
12
Coordinates from ORCA-job run E -731.685372146723
  Al     -0.245199      1.526010      2.572608
  Al     -0.002566     -0.000421     -0.096928
  H       0.773139     -0.980788      1.053250
  H      -1.155068     -0.828239     -0.769604
  H      -0.765584      0.990887      1.049407
  H      -1.512350      2.142683      3.266435
  H      -0.272262     -0.061739      3.273456
  H       1.144645      0.820909     -0.786790
  Al      0.264293     -1.524541      2.576701
  H       1.548717     -2.105375      3.268383
  H      -1.150315     -2.187070      2.390536
  H       1.189080      2.143375      2.395016
12
Coordinates from ORCA-job run E -731.687070625547
  Al     -0.254776      1.513355      2.572619
  Al     -0.012320      0.001779     -0.096737
  H       0.762356     -0.973253      1.061603
  H      -1.162101     -0.826223     -0.772990
  H      -0.773601      0.994775      1.044059
  H      -1.510446      2.163647      3.258585
  H      -0.229372     -0.031693      3.256184
  H       1.139293      0.821096     -0.782077
  Al      0.249817     -1.518819      2.581306
  H       1.545352     -2.060451      3.282308
  H      -1.137788     -2.232341      2.365232
  H       1.200115      2.083818      2.422379
12
Coordinates from ORCA-job run E -731.687475407464
  Al     -0.261673      1.506574      2.572887
  Al     -0.018270      0.004644     -0.096897
  H       0.754919     -0.967524      1.066199
  H      -1.166571     -0.822961     -0.775949
  H      -0.779489      1.000487      1.040429
  H      -1.509298      2.180855      3.250957
  H      -0.200969     -0.020609      3.245310
  H       1.136357      0.822211     -0.779402
  Al      0.240641     -1.518818      2.583633
  H       1.542753     -2.031943      3.293518
  H      -1.128265     -2.263450      2.353843
  H       1.206394      2.046225      2.437941
12
Coordinates from ORCA-job run E -731.687604449312
  Al     -0.265227      1.506082      2.573063
  Al     -0.019831      0.006929     -0.097047
  H       0.751994     -0.964933      1.067143
  H      -1.167823     -0.820335     -0.777265
  H      -0.782327      1.005445      1.038805
  H      -1.509883      2.190398      3.246019
  H      -0.188224     -0.023677      3.243445
  H       1.135913      0.823459     -0.778838
  Al      0.237714     -1.522656      2.583683
  H       1.541503     -2.024172      3.299330
  H      -1.124915     -2.276468      2.353331
  H       1.207638      2.035618      2.440801
12
Coordinates from ORCA-job run E -731.687728239320
  Al     -0.270384      1.508249      2.573400
  Al     -0.020270      0.010796     -0.097208
  H       0.748595     -0.961784      1.067115
  H      -1.168457     -0.815877     -0.778429
  H      -0.786099      1.014236      1.036598
  H      -1.511980      2.204071      3.238519
  H      -0.171969     -0.034692      3.244238
  H       1.136417      0.825786     -0.778997
  Al      0.235485     -1.531731      2.582415
  H       1.539931     -2.020303      3.307241
  H      -1.122050     -2.292063      2.357525
  H       1.207311      2.029002      2.440053
12
Coordinates from ORCA-job run E -731.687745002535
  Al     -0.271443      1.510042      2.573519
  Al     -0.019147      0.011730     -0.097141
  H       0.748204     -0.961538      1.066467
  H      -1.167879     -0.814831     -0.777820
  H      -0.786554      1.016602      1.036046
  H      -1.513137      2.206237      3.237259
  H      -0.170088     -0.038575      3.246071
  H       1.137223      0.826377     -0.779746
  Al      0.236138     -1.535153      2.581323
  H       1.539901     -2.023628      3.308007
  H      -1.122698     -2.293472      2.360755
  H       1.206012      2.031900      2.437731
12
Coordinates from ORCA-job run E -731.687752156335
  Al     -0.272009      1.511369      2.573601
  Al     -0.017786      0.012218     -0.096983
  H       0.747930     -0.961599      1.066038
  H      -1.167199     -0.814362     -0.776641
  H      -0.786521      1.017918      1.035509
  H      -1.514064      2.206582      3.237143
  H      -0.170106     -0.039794      3.247390
  H       1.138083      0.826575     -0.780671
  Al      0.237005     -1.537354      2.580312
  H       1.540122     -2.027215      3.307506
  H      -1.123629     -2.293418      2.363350
  H       1.204705      2.034772      2.435915
12
Coordinates from ORCA-job run E -731.687757047252
  Al     -0.272659      1.512210      2.573672
  Al     -0.016375      0.012742     -0.096758
  H       0.747300     -0.961529      1.065994
  H      -1.166580     -0.813978     -0.775036
  H      -0.786430      1.019121      1.034711
  H      -1.514908      2.206596      3.237358
  H      -0.170074     -0.039399      3.247934
  H       1.139016      0.826584     -0.781756
  Al      0.237683     -1.539074      2.579396
  H       1.540369     -2.030046      3.306699
  H      -1.124340     -2.293814      2.365490
  H       1.203529      2.036276      2.434768
12
Coordinates from ORCA-job run E -731.687760410978
  Al     -0.273417      1.512446      2.573718
  Al     -0.015113      0.013430     -0.096521
  H       0.746292     -0.961222      1.066397
  H      -1.166118     -0.813589     -0.773194
  H      -0.786342      1.020341      1.033684
  H      -1.515635      2.206500      3.237714
  H      -0.169692     -0.038049      3.247605
  H       1.139975      0.826415     -0.782938
  Al      0.238024     -1.540264      2.578738
  H       1.540567     -2.031665      3.305900
  H      -1.124659     -2.294842      2.367082
  H       1.202649      2.036188      2.434285
12
Coordinates from ORCA-job run E -731.687761855083
  Al     -0.273887      1.512119      2.573717
  Al     -0.014535      0.014038     -0.096420
  H       0.745468     -0.960843      1.066960
  H      -1.165981     -0.813324     -0.771996
  H      -0.786251      1.021135      1.032948
  H      -1.515975      2.206287      3.238002
  H      -0.169351     -0.037107      3.246822
  H       1.140588      0.826148     -0.783750
  Al      0.237978     -1.540537      2.578645
  H       1.540653     -2.031743      3.305514
  H      -1.124556     -2.295710      2.367695
  H       1.202378      2.035227      2.434333
12
Coordinates from ORCA-job run E -731.687762784418
  Al     -0.274203      1.511619      2.573691
  Al     -0.014196      0.014692     -0.096421
  H       0.744752     -0.960427      1.067547
  H      -1.165962     -0.813069     -0.771029
  H      -0.786088      1.021876      1.032332
  H      -1.516188      2.205915      3.238270
  H      -0.169265     -0.036809      3.245975
  H       1.141139      0.825785     -0.784538
  Al      0.237840     -1.540494      2.578824
  H       1.540738     -2.031425      3.305299
  H      -1.124338     -2.296296      2.368118
  H       1.202301      2.034324      2.434401
12
Coordinates from ORCA-job run E -731.687763611395
  Al     -0.274468      1.511052      2.573649
  Al     -0.013852      0.015529     -0.096520
  H       0.744000     -0.959926      1.068168
  H      -1.165996     -0.812727     -0.769960
  H      -0.785780      1.022868      1.031650
  H      -1.516404      2.205324      3.238583
  H      -0.169556     -0.037131      3.245102
  H       1.141828      0.825246     -0.785606
  Al      0.237720     -1.540398      2.579178
  H       1.540912     -2.031127      3.305121
  H      -1.124093     -2.296719      2.368739
  H       1.202220      2.033699      2.434365
12
Coordinates from ORCA-job run E -731.687764116669
  Al     -0.274602      1.510720      2.573615
  Al     -0.013579      0.016210     -0.096698
  H       0.743481     -0.959536      1.068529
  H      -1.166092     -0.812392     -0.769146
  H      -0.785406      1.023842      1.031118
  H      -1.516551      2.204786      3.238811
  H      -0.170213     -0.037877      3.244594
  H       1.142413      0.824696     -0.786645
  Al      0.237710     -1.540396      2.579531
  H       1.541168     -2.031052      3.305036
  H      -1.123919     -2.296950      2.369403
  H       1.202120      2.033639      2.434322
12
Coordinates from ORCA-job run E -731.687764345015
  Al     -0.274614      1.510679      2.573604
  Al     -0.013457      0.016511     -0.096881
  H       0.743272     -0.959353      1.068572
  H      -1.166262     -0.812151     -0.768779
  H      -0.785092      1.024523      1.030834
  H      -1.516581      2.204556      3.238877
  H      -0.170920     -0.038477      3.244479
  H       1.142701      0.824292     -0.787342
  Al      0.237770     -1.540486      2.579748
  H       1.541428     -2.031026      3.305064
  H      -1.123785     -2.297189      2.369814
  H       1.202071      2.033813      2.434480
12
Coordinates from ORCA-job run E -731.687764517572
  Al     -0.274593      1.510735      2.573603
  Al     -0.013416      0.016646     -0.097085
  H       0.743127     -0.959225      1.068502
  H      -1.166564     -0.811893     -0.768550
  H      -0.784745      1.025197      1.030583
  H      -1.516546      2.204527      3.238846
  H      -0.171727     -0.038897      3.244436
  H       1.142861      0.823869     -0.787983
  Al      0.237838     -1.540617      2.579929
  H       1.541738     -2.030797      3.305170
  H      -1.123550     -2.297700      2.370063
  H       1.202107      2.033844      2.434957
12
Coordinates from ORCA-job run E -731.687764781699
  Al     -0.274557      1.510829      2.573607
  Al     -0.013425      0.016781     -0.097445
  H       0.742830     -0.959004      1.068376
  H      -1.167270     -0.811377     -0.768172
  H      -0.784067      1.026438      1.030098
  H      -1.516439      2.204682      3.238693
  H      -0.173225     -0.039377      3.244264
  H       1.143045      0.823064     -0.789099
  Al      0.237921     -1.540840      2.580228
  H       1.542328     -2.029989      3.305419
  H      -1.122932     -2.299013      2.370305
  H       1.202321      2.033497      2.436195
12
Coordinates from ORCA-job run E -731.687765177079
  Al     -0.274509      1.510918      2.573616
  Al     -0.013526      0.016938     -0.098006
  H       0.742227     -0.958620      1.068248
  H      -1.168657     -0.810425     -0.767480
  H      -0.782833      1.028578      1.029207
  H      -1.516249      2.205158      3.238321
  H      -0.175815     -0.039928      3.243767
  H       1.143273      0.821644     -0.790934
  Al      0.238005     -1.541170      2.580692
  H       1.543343     -2.028102      3.305871
  H      -1.121617     -2.301673      2.370494
  H       1.202888      2.032372      2.438675
12
Coordinates from ORCA-job run E -731.687765716754
  Al     -0.274445      1.510945      2.573640
  Al     -0.013765      0.017114     -0.098726
  H       0.741208     -0.958052      1.068197
  H      -1.170914     -0.808914     -0.766336
  H      -0.780886      1.031741      1.027824
  H      -1.515995      2.206094      3.237613
  H      -0.179743     -0.040553      3.242764
  H       1.143527      0.819502     -0.793517
  Al      0.238086     -1.541585      2.581271
  H       1.544833     -2.024729      3.306526
  H      -1.119353     -2.306007      2.370559
  H       1.203978      2.030133      2.442656
12
Coordinates from ORCA-job run E -731.687766411613
  Al     -0.274349      1.510870      2.573702
  Al     -0.014175      0.017311     -0.099495
  H       0.739735     -0.957331      1.068285
  H      -1.174091     -0.806805     -0.764647
  H      -0.778154      1.035858      1.025974
  H      -1.515717      2.207587      3.236461
  H      -0.185122     -0.041349      3.241149
  H       1.143785      0.816665     -0.796692
  Al      0.238185     -1.542054      2.581837
  H       1.546768     -2.019697      3.307328
  H      -1.116023     -2.312018      2.370481
  H       1.205688      2.026653      2.448087
12
Coordinates from ORCA-job run E -731.687767364629
  Al     -0.274176      1.510673      2.573862
  Al     -0.014824      0.017589     -0.100293
  H       0.737639     -0.956420      1.068526
  H      -1.178543     -0.803833     -0.762133
  H      -0.774259      1.041308      1.023520
  H      -1.515411      2.209882      3.234625
  H      -0.192745     -0.042628      3.238683
  H       1.144079      0.812845     -0.800653
  Al      0.238376     -1.542612      2.582288
  H       1.549344     -2.012378      3.308310
  H      -1.111193     -2.320278      2.370327
  H       1.208243      2.021543      2.455408
12
Coordinates from ORCA-job run E -731.687768754949
  Al     -0.273858      1.510322      2.574238
  Al     -0.015852      0.018094     -0.101176
  H       0.734576     -0.955205      1.068878
  H      -1.185004     -0.799451     -0.758265
  H      -0.768438      1.048988      1.020153
  H      -1.514999      2.213459      3.231673
  H      -0.204243     -0.044946      3.234865
  H       1.144488      0.807387     -0.805972
  Al      0.238789     -1.543347      2.582524
  H       1.553004     -2.001467      3.309619
  H      -1.103980     -2.332089      2.370254
  H       1.212047      2.013946      2.465677
12
Coordinates from ORCA-job run E -731.687770593570
  Al     -0.273452      1.509902      2.574865
  Al     -0.017041      0.018798     -0.101808
  H       0.731441     -0.954091      1.069110
  H      -1.191607     -0.794886     -0.754088
  H      -0.762300      1.056657      1.016982
  H      -1.514517      2.217515      3.228290
  H      -0.216710     -0.047934      3.230673
  H       1.144909      0.801865     -0.810961
  Al      0.239402     -1.544024      2.582252
  H       1.556723     -1.989861      3.310906
  H      -1.096343     -2.344103      2.370442
  H       1.216024      2.005852      2.475808
12
Coordinates from ORCA-job run E -731.687773296829
  Al     -0.272915      1.509338      2.575972
  Al     -0.018580      0.019981     -0.102303
  H       0.727931     -0.952978      1.069020
  H      -1.198977     -0.789666     -0.749168
  H      -0.755227      1.065227      1.013775
  H      -1.513741      2.222666      3.224079
  H      -0.231873     -0.052116      3.225570
  H       1.145465      0.795655     -0.816197
  Al      0.240352     -1.544688      2.581346
  H       1.560976     -1.976127      3.312431
  H      -1.087418     -2.357745      2.371143
  H       1.220537      1.996144      2.486800
12
Coordinates from ORCA-job run E -731.687776251335
  Al     -0.272407      1.508699      2.577409
  Al     -0.020191      0.021622     -0.102896
  H       0.724663     -0.951977      1.068402
  H      -1.205787     -0.784696     -0.744484
  H      -0.748535      1.073570      1.010998
  H      -1.512580      2.227994      3.220015
  H      -0.247274     -0.056599      3.220409
  H       1.146148      0.789667     -0.821299
  Al      0.241429     -1.545242      2.580268
  H       1.565133     -1.962549      3.314179
  H      -1.078722     -2.371017      2.372405
  H       1.224652      1.986218      2.497065
12
Coordinates from ORCA-job run E -731.687779762332
  Al     -0.271997      1.507929      2.579151
  Al     -0.021882      0.023756     -0.103763
  H       0.721671     -0.951094      1.067170
  H      -1.211974     -0.780035     -0.740248
  H      -0.742432      1.081759      1.008578
  H      -1.510897      2.233556      3.216299
  H      -0.262765     -0.061020      3.215231
  H       1.146930      0.783944     -0.826458
  Al      0.242547     -1.545653      2.579240
  H       1.569169     -1.949007      3.316310
  H      -1.070197     -2.384158      2.374170
  H       1.228356      1.975712      2.506788
12
Coordinates from ORCA-job run E -731.687784006917
  Al     -0.271755      1.506943      2.581138
  Al     -0.023669      0.026397     -0.105050
  H       0.718959     -0.950379      1.065299
  H      -1.217543     -0.775670     -0.736639
  H      -0.737097      1.089866      1.006390
  H      -1.508556      2.239515      3.213111
  H      -0.278332     -0.065019      3.210049
  H       1.147747      0.778566     -0.831830
  Al      0.243617     -1.545884      2.578475
  H       1.573036     -1.935204      3.318987
  H      -1.061621     -2.397513      2.376340
  H       1.231745      1.964071      2.516200
12
Coordinates from ORCA-job run E -731.687787930023
  Al     -0.271726      1.505919      2.582677
  Al     -0.025144      0.028727     -0.106514
  H       0.716826     -0.949921      1.063558
  H      -1.221942     -0.772087     -0.734150
  H      -0.733210      1.096602      1.004429
  H      -1.506170      2.244722      3.211026
  H      -0.291133     -0.067585      3.205743
  H       1.148281      0.774401     -0.836670
  Al      0.244333     -1.545969      2.578383
  H       1.576007     -1.923325      3.321653
  H      -1.054122     -2.409055      2.378095
  H       1.234530      1.953261      2.524240
12
Coordinates from ORCA-job run E -731.687793642852
  Al     -0.271483      1.504153      2.584696
  Al     -0.027558      0.031986     -0.108882
  H       0.712383     -0.948748      1.061677
  H      -1.231292     -0.764619     -0.728610
  H      -0.724594      1.109216      1.000119
  H      -1.502490      2.253435      3.206950
  H      -0.314309     -0.072222      3.196920
  H       1.148759      0.766143     -0.845998
  Al      0.245470     -1.546389      2.578582
  H       1.581069     -1.901191      3.326102
  H      -1.039453     -2.430300      2.380385
  H       1.240028      1.934227      2.540529
12
Coordinates from ORCA-job run E -731.687800591444
  Al     -0.271080      1.501682      2.586680
  Al     -0.030418      0.035558     -0.111698
  H       0.706736     -0.947385      1.059910
  H      -1.243438     -0.754729     -0.721436
  H      -0.713303      1.124679      0.994485
  H      -1.497685      2.264050      3.202139
  H      -0.343498     -0.077892      3.184931
  H       1.148777      0.755986     -0.857729
  Al      0.246791     -1.546742      2.579215
  H       1.586662     -1.872681      3.331789
  H      -1.020034     -2.456585      2.382788
  H       1.247018      1.909749      2.561396
12
Coordinates from ORCA-job run E -731.687809241029
  Al     -0.269960      1.497169      2.590165
  Al     -0.035316      0.041437     -0.115876
  H       0.696620     -0.944648      1.057429
  H      -1.265368     -0.736555     -0.707295
  H      -0.691380      1.151360      0.985173
  H      -1.489240      2.281535      3.193301
  H      -0.394878     -0.089295      3.160721
  H       1.148220      0.737486     -0.878057
  Al      0.249379     -1.547267      2.579650
  H       1.595066     -1.822018      3.341523
  H      -0.984931     -2.500966      2.387452
  H       1.258319      1.867453      2.598285
12
Coordinates from ORCA-job run E -731.687812746866
  Al     -0.269519      1.492476      2.590351
  Al     -0.037761      0.044124     -0.118469
  H       0.691482     -0.945011      1.056072
  H      -1.277473     -0.725316     -0.701151
  H      -0.681109      1.165184      0.978899
  H      -1.481106      2.292807      3.191169
  H      -0.427533     -0.094467      3.146181
  H       1.146184      0.730189     -0.889124
  Al      0.250519     -1.545527      2.582014
  H       1.597940     -1.788045      3.349368
  H      -0.960984     -2.526251      2.388932
  H       1.265890      1.835528      2.618228
12
Coordinates from ORCA-job run E -731.687817123373
  Al     -0.269020      1.491112      2.591645
  Al     -0.038922      0.045813     -0.118631
  H       0.688472     -0.943904      1.055398
  H      -1.283605     -0.719980     -0.695657
  H      -0.673708      1.172680      0.976937
  H      -1.478728      2.296821      3.188184
  H      -0.442201     -0.099821      3.137758
  H       1.146091      0.724559     -0.894074
  Al      0.251675     -1.545584      2.580823
  H       1.599856     -1.773851      3.351885
  H      -0.951596     -2.537094      2.390871
  H       1.268216      1.824941      2.627330
12
Coordinates from ORCA-job run E -731.687824512593
  Al     -0.269848      1.491058      2.588880
  Al     -0.036066      0.043354     -0.115131
  H       0.691698     -0.946069      1.056089
  H      -1.275280     -0.725687     -0.699805
  H      -0.682896      1.163752      0.979242
  H      -1.479138      2.291785      3.192140
  H      -0.429109     -0.099446      3.148474
  H       1.146167      0.733680     -0.884467
  Al      0.251318     -1.543787      2.579671
  H       1.597463     -1.787749      3.350090
  H      -0.963265     -2.520976      2.388055
  H       1.265487      1.835774      2.609232
12
Coordinates from ORCA-job run E -731.687828368845
  Al     -0.269905      1.487408      2.589062
  Al     -0.037335      0.045702     -0.116301
  H       0.687964     -0.946049      1.054547
  H      -1.282732     -0.718098     -0.694893
  H      -0.676297      1.173988      0.975197
  H      -1.472267      2.299627      3.191091
  H      -0.452226     -0.104512      3.138158
  H       1.145104      0.729077     -0.891471
  Al      0.252320     -1.542388      2.580579
  H       1.599269     -1.763502      3.356140
  H      -0.947046     -2.538130      2.389704
  H       1.269683      1.812565      2.620656
12
Coordinates from ORCA-job run E -731.687830260552
  Al     -0.270294      1.484827      2.588699
  Al     -0.037767      0.047107     -0.116887
  H       0.686021     -0.946069      1.053291
  H      -1.285774     -0.714463     -0.692825
  H      -0.674242      1.179572      0.972930
  H      -1.466950      2.304288      3.191680
  H      -0.465273     -0.106873      3.133337
  H       1.144589      0.727549     -0.894714
  Al      0.252649     -1.541009      2.581486
  H       1.600061     -1.749177      3.360086
  H      -0.938031     -2.547527      2.390219
  H       1.271541      1.797465      2.625168
12
Coordinates from ORCA-job run E -731.687830791248
  Al     -0.270504      1.484528      2.588335
  Al     -0.037584      0.047056     -0.116700
  H       0.686071     -0.945799      1.053190
  H      -1.284922     -0.715133     -0.693172
  H      -0.675400      1.179370      0.972983
  H      -1.466069      2.304292      3.192434
  H      -0.465131     -0.106508      3.134358
  H       1.144796      0.728077     -0.893983
  Al      0.252420     -1.540561      2.581651
  H       1.600105     -1.748946      3.360126
  H      -0.938464     -2.547186      2.389571
  H       1.271213      1.796500      2.623676
12
Coordinates from ORCA-job run E -731.687831119048
  Al     -0.270521      1.484387      2.588202
  Al     -0.037623      0.046994     -0.116502
  H       0.685892     -0.945032      1.053392
  H      -1.284649     -0.715645     -0.692949
  H      -0.675680      1.179499      0.973045
  H      -1.465593      2.304189      3.192715
  H      -0.465352     -0.106365      3.134694
  H       1.145110      0.727706     -0.893541
  Al      0.252198     -1.540286      2.581610
  H       1.600325     -1.748461      3.359740
  H      -0.938628     -2.547270      2.388866
  H       1.271052      1.795973      2.623199
12
Coordinates from ORCA-job run E -731.687831336316
  Al     -0.270469      1.484396      2.588095
  Al     -0.037686      0.046842     -0.116300
  H       0.685847     -0.944200      1.053851
  H      -1.284322     -0.716312     -0.692843
  H      -0.676019      1.179267      0.973163
  H      -1.465524      2.303915      3.192901
  H      -0.464941     -0.106158      3.135220
  H       1.145403      0.727423     -0.892943
  Al      0.251959     -1.540155      2.581528
  H       1.600413     -1.748763      3.359084
  H      -0.939114     -2.546857      2.388131
  H       1.270981      1.796292      2.622582
12
Coordinates from ORCA-job run E -731.687831551065
  Al     -0.270387      1.484334      2.587995
  Al     -0.037805      0.046759     -0.116134
  H       0.685867     -0.943194      1.054487
  H      -1.283977     -0.717038     -0.692800
  H      -0.676520      1.179009      0.973217
  H      -1.465339      2.303866      3.193122
  H      -0.464845     -0.106067      3.135753
  H       1.145675      0.727249     -0.892289
  Al      0.251714     -1.540049      2.581454
  H       1.600411     -1.748894      3.358460
  H      -0.939371     -2.546548      2.387390
  H       1.271106      1.796261      2.621815
12
Coordinates from ORCA-job run E -731.687831764928
  Al     -0.270321      1.484158      2.587880
  Al     -0.037923      0.046808     -0.116039
  H       0.686085     -0.942155      1.055186
  H      -1.283389     -0.717893     -0.693048
  H      -0.677518      1.178581      0.973245
  H      -1.464890      2.304111      3.193486
  H      -0.464960     -0.106066      3.136488
  H       1.145864      0.727556     -0.891508
  Al      0.251492     -1.539951      2.581430
  H       1.600249     -1.749035      3.358079
  H      -0.939532     -2.546196      2.386765
  H       1.271372      1.795772      2.620508
12
Coordinates from ORCA-job run E -731.687831959530
  Al     -0.270289      1.483854      2.587740
  Al     -0.038000      0.047015     -0.116035
  H       0.686531     -0.941232      1.055813
  H      -1.282517     -0.718806     -0.693646
  H      -0.679046      1.177969      0.973279
  H      -1.464116      2.304639      3.193966
  H      -0.465239     -0.106146      3.137390
  H       1.145896      0.728500     -0.890675
  Al      0.251337     -1.539858      2.581484
  H       1.599933     -1.749239      3.358132
  H      -0.939660     -2.545806      2.386382
  H       1.271697      1.794799      2.618639
12
Coordinates from ORCA-job run E -731.687832102347
  Al     -0.270284      1.483538      2.587580
  Al     -0.037992      0.047265     -0.116083
  H       0.687076     -0.940646      1.056220
  H      -1.281577     -0.719560     -0.694401
  H      -0.680659      1.177263      0.973367
  H      -1.463281      2.305172      3.194383
  H      -0.465372     -0.106212      3.138221
  H       1.145736      0.729829     -0.889994
  Al      0.251279     -1.539792      2.581602
  H       1.599570     -1.749640      3.358577
  H      -0.939889     -2.545373      2.386272
  H       1.271922      1.793846      2.616726
12
Coordinates from ORCA-job run E -731.687832216330
  Al     -0.270267      1.483267      2.587380
  Al     -0.037924      0.047459     -0.116113
  H       0.687618     -0.940234      1.056524
  H      -1.280662     -0.720199     -0.695143
  H      -0.682165      1.176484      0.973525
  H      -1.462516      2.305565      3.194673
  H      -0.465225     -0.106208      3.138918
  H       1.145432      0.731288     -0.889439
  Al      0.251267     -1.539749      2.581752
  H       1.599212     -1.750279      3.359200
  H      -0.940276     -2.544871      2.386232
  H       1.272037      1.793168      2.614961
12
Coordinates from ORCA-job run E -731.687832329742
  Al     -0.270209      1.483037      2.587097
  Al     -0.037817      0.047563     -0.116071
  H       0.688173     -0.939762      1.056898
  H      -1.279677     -0.720909     -0.695873
  H      -0.683711      1.175522      0.973782
  H      -1.461775      2.305832      3.194876
  H      -0.464746     -0.106104      3.139575
  H       1.144994      0.732905     -0.888863
  Al      0.251251     -1.539715      2.581930
  H       1.598821     -1.751249      3.359897
  H      -0.940869     -2.544210      2.386061
  H       1.272095      1.792780      2.613160
12
Coordinates from ORCA-job run E -731.687832437212
  Al     -0.270103      1.482887      2.586748
  Al     -0.037701      0.047545     -0.115923
  H       0.688673     -0.939147      1.057397
  H      -1.278669     -0.721745     -0.696495
  H      -0.685212      1.174436      0.974124
  H      -1.461113      2.305987      3.195018
  H      -0.463984     -0.105899      3.140155
  H       1.144486      0.734485     -0.888239
  Al      0.251203     -1.539685      2.582108
  H       1.598410     -1.752479      3.360513
  H      -0.941597     -2.543421      2.385638
  H       1.272136      1.792727      2.611426
12
Coordinates from ORCA-job run E -731.687832516660
  Al     -0.269992      1.482868      2.586450
  Al     -0.037624      0.047433     -0.115706
  H       0.688981     -0.938549      1.057881
  H      -1.277869     -0.722552     -0.696858
  H      -0.686328      1.173538      0.974453
  H      -1.460676      2.306079      3.195138
  H      -0.463233     -0.105666      3.140531
  H       1.144086      0.735571     -0.887697
  Al      0.251128     -1.539661      2.582225
  H       1.598073     -1.753586      3.360840
  H      -0.942198     -2.542733      2.385044
  H       1.272182      1.792949      2.610169
12
Coordinates from ORCA-job run E -731.687832568563
  Al     -0.269922      1.482945      2.586272
  Al     -0.037594      0.047317     -0.115496
  H       0.689117     -0.938121      1.058215
  H      -1.277308     -0.723232     -0.697022
  H      -0.687059      1.172957      0.974702
  H      -1.460422      2.306211      3.195305
  H      -0.462726     -0.105480      3.140725
  H       1.143864      0.736138     -0.887286
  Al      0.251053     -1.539639      2.582275
  H       1.597835     -1.754352      3.360921
  H      -0.942543     -2.542264      2.384467
  H       1.272236      1.793211      2.609392
12
Coordinates from ORCA-job run E -731.687832604731
  Al     -0.269904      1.483062      2.586185
  Al     -0.037586      0.047251     -0.115320
  H       0.689192     -0.937869      1.058404
  H      -1.276825     -0.723845     -0.697152
  H      -0.687671      1.172562      0.974891
  H      -1.460204      2.306440      3.195565
  H      -0.462430     -0.105347      3.140860
  H       1.143754      0.736489     -0.886936
  Al      0.250994     -1.539615      2.582294
  H       1.597644     -1.754887      3.360924
  H      -0.942724     -2.541931      2.383980
  H       1.272289      1.793382      2.608777
12
Coordinates from ORCA-job run E -731.687832628493
  Al     -0.269931      1.483169      2.586157
  Al     -0.037579      0.047249     -0.115203
  H       0.689270     -0.937793      1.058463
  H      -1.276384     -0.724350     -0.697324
  H      -0.688239      1.172284      0.975020
  H      -1.459978      2.306721      3.195881
  H      -0.462286     -0.105267      3.140991
  H       1.143711      0.736789     -0.886635
  Al      0.250959     -1.539594      2.582307
  H       1.597493     -1.755251      3.360947
  H      -0.942825     -2.541693      2.383663
  H       1.272319      1.793426      2.608202
12
Coordinates from ORCA-job run E -731.687832639391
  Al     -0.269972      1.483224      2.586156
  Al     -0.037566      0.047282     -0.115163
  H       0.689343     -0.937841      1.058446
  H      -1.276096     -0.724616     -0.697493
  H      -0.688625      1.172129      0.975073
  H      -1.459805      2.306915      3.196122
  H      -0.462235     -0.105236      3.141092
  H       1.143703      0.737024     -0.886442
  Al      0.250948     -1.539588      2.582324
  H       1.597416     -1.755432      3.361004
  H      -0.942895     -2.541563      2.383566
  H       1.272313      1.793392      2.607784
12
Coordinates from ORCA-job run E -731.687832644361
  Al     -0.270001      1.483243      2.586151
  Al     -0.037551      0.047303     -0.115156
  H       0.689393     -0.937906      1.058431
  H      -1.275951     -0.724712     -0.697615
  H      -0.688829      1.172045      0.975082
  H      -1.459706      2.306990      3.196257
  H      -0.462196     -0.105223      3.141148
  H       1.143707      0.737183     -0.886326
  Al      0.250944     -1.539595      2.582343
  H       1.597395     -1.755513      3.361049
  H      -0.942966     -2.541496      2.383573
  H       1.272289      1.793372      2.607532
