# Geometry optimization for (AlH3)n cluster

%pal nprocs 64  end

%geom MaxIter 500 end


! PBE pc-1
! RKS	# closed shell for AlH3
! D3    #  dispersion correction
! Freq 	# Frequency analysis to check the stabiltity of the structures

! NoPop # population analysis not necessary	

! DEFGRID3
! TightSCF
! TightOpt

! SmallPrint


* xyzFile 0 1 start.xyz # only maingroup elements H and Al so there should be no net spin
