84
Coordinates from ORCA-job run_pre E -4464.503534516433
  Zr         -0.20042800649312      2.24158197632037      1.20268591270556
  Zr          0.82450487764277     -2.33542056935172     -0.78460684068204
  Zr          2.12735246748464     -0.62922185997220      1.94766964687881
  Zr         -1.49658301970144      0.48722254263035     -1.50278804618525
  Zr          1.97144610855702      0.85704332852205     -1.50518155304221
  Zr         -1.31848726961077     -0.94488376454634      1.97383807329005
  O          -1.55643804534164      0.58358000159907      0.58232614223193
  O           2.15482555560665     -0.69565276173793     -0.14423570058209
  O           0.40703121650913     -1.85005290396945      1.19958577489349
  O           0.21787925296299      1.68017096406692     -0.75114292260543
  O           0.23456127964265     -0.61522713617246     -1.72030058108978
  O           0.37359386362698      0.46156105065774      2.13394349381166
  O          -1.56708154687103      2.49786810164303      2.93556482587290
  O          -1.85597431632753      3.50263456395449      0.38995846693176
  O           1.42648503133232      2.81179130233896      2.62166820874449
  O           0.97264899372026      3.98169971537247      0.33656780449759
  O          -0.91195674311150     -3.59406847514926     -0.29130147350667
  O          -0.57222109348419     -2.91980428099671     -2.85836003759290
  O           2.37708941226418     -3.64319095786510      0.08754435556305
  O           2.28490053973185     -2.54716828036377     -2.47633930166338
  O           1.63392269247517     -1.62504946915437      3.87087628546920
  O           2.62026171790804      1.03959976889873      3.40727348536273
  O           3.26956244998804     -2.53934850888785      1.85156171517889
  O           4.06213906141878      0.31438877745357      1.35837927858342
  O          -3.37849791658015     -0.55009394754162     -0.95661851535787
  O          -2.65902577644063      2.37521520238502     -1.40669373731249
  O          -1.97052225458025     -1.13583669249832     -3.08350240039001
  O          -0.99103568769471      1.51415280685713     -3.41852618013362
  O           1.26994482350235      1.69075482153880     -3.44271261489454
  O           2.49973073933697      2.96426435156632     -1.01014760377372
  O           2.91727186723782     -0.44443714636582     -3.03125187239240
  O           4.12833341014816      0.94091036360798     -0.82832484205714
  O          -3.47003603323292     -1.10969240144217      1.24467873377554
  O          -2.29170316665792      0.41202230041139      3.44932026129560
  O          -1.89641913214991     -3.11597565588440      1.69206303440134
  O          -0.63005852769543     -1.71437681372231      3.93793926412072
  C          -2.23766475752083      1.66654849382071      3.62363596052739
  C          -2.64158834170538      3.35132149954263     -0.59242219636107
  C           2.16737019587014      2.21765171652270      3.47472873180926
  C           1.90097236008972      3.98019299039807     -0.52090955979976
  C          -1.56797100154611     -3.90369107207656      0.76642057493311
  C          -1.46716975696776     -2.21346857106027     -3.47200117810929
  C           3.16920979021412     -3.53608070079769      1.07533117542805
  C           2.91209584589676     -1.70389549791786     -3.18708757079500
  C           0.52765664805073     -1.93069205099129      4.41189428076982
  C           4.65919070464063      0.61528392994165      0.27299057661654
  C          -3.99080156690652     -0.82454547386769      0.13034379590398
  C           0.11232670996411      1.86721669093624     -3.93401862012056
  H          -1.83000713144743     -2.62873627044948     -4.45733084687865
  H           3.84950693184671     -4.41213488606028      1.27431926137020
  H           2.46328426684445      2.82183235686472      4.38114731712275
  H          -3.40337535046626      4.16456436739139     -0.76398790064114
  H           3.52307361281009     -2.11380160925769     -4.04036981924967
  H           0.06183783439507      2.39030799082855     -4.93153739419953
  H           2.25556244793053      4.98756148114153     -0.88585393038862
  H           5.78720857850106      0.60634510543106      0.30609582740231
  H          -1.89889641042510     -4.97617539144060      0.85072248979263
  H          -5.11791387989695     -0.83018039167761      0.07791885601749
  H          -2.84523787908263      2.08784708427609      4.47457871302616
  H           0.57744321464188     -2.44123373895806      5.41519591487269
  Al          1.02401353679180    -10.02057299891960     -1.59650833951741
  Al         -1.26271968524089     -8.97360740582429      0.44812761896356
  H          -0.67898965344550     -7.52602280224204      1.17052258291708
  H          -2.11347510768304     -8.47672448684098     -0.85308395191507
  H           0.23118076442695     -9.61390876865764     -0.06781755893671
  H          -0.09757750643893    -10.77506392243870     -2.48028158916769
  H           1.24180763365079     -8.44005989527852     -2.14971859618090
  H          -1.88776003569449     -9.93559044514061      1.57800876711220
  Al          0.97532153135209     -6.95127135928172      1.45188352852479
  H           1.43294636930266     -6.73831137579769     -0.15071159156566
  H           0.68156507158004     -5.53888622806462      2.19187925202759
  H           2.42864402569210    -10.62999614164518     -1.08477567724685
  Al          1.33814392981728     -6.63469682400896     -2.03002862725859
  H          -0.40695816597567     -6.76230763891323     -1.50717651962195
  H           2.94166902078725     -6.44929984941855     -2.13812395187537
  H           1.77808991273380     -8.18049696573705      2.13018160601240
  Al         -1.92345455207516     -6.78998562544687     -2.28495604950250
  H          -3.06666839387569     -6.06693980580342     -1.39076888072753
  H          -2.05304281862274     -7.93023446165222     -3.41909764752412
  Al          0.10015384148767     -4.71119388872604     -3.52297208418801
  H           0.61403233550440     -4.23021847798119     -4.97785051230494
  H           0.74078968378598     -6.44214272399561     -3.65811497061116
  H           0.89665047737772     -4.79349429550293     -1.99515095153967
  H          -1.46199978888108     -5.37417656982214     -3.35354879394320
