20
Coordinates from ORCA-job run E -1219.633805060776
  Al     -0.334910      1.128240      2.788780
  Al      0.131570     -0.237880     -0.054440
  H      -0.138010     -1.761440      0.653210
  H      -0.952330      0.005180     -1.200790
  H      -0.933150      0.611160      0.836730
  H      -1.687050      1.948480      2.998140
  H      -0.504810     -0.419960      3.476290
  H       1.686410     -0.292100     -0.129050
  Al      0.695350     -2.986740      1.488620
  H      -0.073070     -2.653160      2.759770
  H      -0.339650     -4.118820      1.932870
  H       0.875790      1.897910      3.492360
  Al      0.594870     -1.544490      4.126330
  H       0.170530     -2.280430      5.866800
  H       1.677000     -1.359000      3.595910
  H       1.808520     -3.621220      0.536310
  Al      0.971960     -3.656210      5.587480
  H       2.248440     -4.136350      6.957000
  H       1.052110     -4.103570      4.089410
  H      -0.623360     -4.134620      7.208260
20
Coordinates from ORCA-job run E -1219.686132652334
  Al     -0.352635      1.122170      2.776281
  Al      0.132811     -0.235579     -0.035005
  H      -0.145510     -1.765855      0.661510
  H      -0.958479      0.016224     -1.181302
  H      -0.892688      0.626205      0.927694
  H      -1.710358      1.941156      2.987486
  H      -0.519301     -0.428234      3.474132
  H       1.699599     -0.284574     -0.118704
  Al      0.686209     -3.002543      1.484624
  H      -0.086395     -2.654591      2.786532
  H      -0.360355     -4.153893      1.895753
  H       0.883101      1.884498      3.453352
  Al      0.589024     -1.549576      4.123609
  H       0.165135     -2.262110      5.850212
  H       1.734369     -1.344186      3.574862
  H       1.816546     -3.625923      0.540253
  Al      0.971623     -3.663253      5.608205
  H       2.232545     -4.094165      6.931796
  H       1.066039     -4.124772      4.104757
  H      -0.625070     -4.116020      7.163944
20
Coordinates from ORCA-job run E -1219.731072710440
  Al     -0.372003      1.121112      2.767892
  Al      0.132937     -0.235583     -0.021488
  H      -0.153029     -1.771458      0.666249
  H      -0.965398      0.021895     -1.166684
  H      -0.853183      0.632374      1.013670
  H      -1.735410      1.937737      2.986848
  H      -0.535361     -0.432325      3.473502
  H       1.712202     -0.270267     -0.113702
  Al      0.678408     -3.017365      1.478648
  H      -0.100999     -2.652948      2.813021
  H      -0.376597     -4.187338      1.858721
  H       0.887938      1.873223      3.420207
  Al      0.581752     -1.551163      4.119794
  H       0.159266     -2.242419      5.831163
  H       1.809383     -1.321927      3.545426
  H       1.826653     -3.635218      0.547003
  Al      0.969006     -3.672252      5.627682
  H       2.217100     -4.063818      6.913009
  H       1.073989     -4.149980      4.118528
  H      -0.630442     -4.097299      7.130501
20
Coordinates from ORCA-job run E -1219.763853333584
  Al     -0.390666      1.121575      2.762761
  Al      0.132534     -0.237306     -0.010176
  H      -0.161896     -1.777915      0.670234
  H      -0.970766      0.024833     -1.154023
  H      -0.812823      0.634876      1.088615
  H      -1.758509      1.935911      2.992897
  H      -0.550769     -0.435275      3.475602
  H       1.722146     -0.254414     -0.108616
  Al      0.668232     -3.032733      1.474608
  H      -0.115577     -2.650818      2.840389
  H      -0.394388     -4.218009      1.821899
  H       0.894657      1.860634      3.386944
  Al      0.574638     -1.552604      4.116009
  H       0.154936     -2.222579      5.809261
  H       1.877852     -1.299973      3.520092
  H       1.838793     -3.642468      0.560780
  Al      0.965594     -3.682008      5.647856
  H       2.202021     -4.033079      6.892533
  H       1.082381     -4.173801      4.133909
  H      -0.632182     -4.079869      7.088414
20
Coordinates from ORCA-job run E -1219.798854871787
  Al     -0.414765      1.126614      2.767204
  Al      0.131798     -0.244996     -0.001039
  H      -0.177387     -1.790011      0.673192
  H      -0.973063      0.020784     -1.145984
  H      -0.760116      0.632413      1.163547
  H      -1.785365      1.939133      3.020011
  H      -0.570906     -0.436558      3.488154
  H       1.732560     -0.233644     -0.099891
  Al      0.647038     -3.056800      1.474145
  H      -0.136264     -2.646350      2.882306
  H      -0.427439     -4.257208      1.768708
  H       0.911229      1.839344      3.342311
  Al      0.565301     -1.555439      4.113014
  H       0.153047     -2.193960      5.772694
  H       1.954163     -1.272048      3.497443
  H       1.860644     -3.645121      0.597607
  Al      0.958291     -3.696918      5.679134
  H       2.182138     -3.983189      6.858271
  H       1.098156     -4.200270      4.158937
  H      -0.622849     -4.060796      7.000225
20
Coordinates from ORCA-job run E -1219.835488963345
  Al     -0.440582      1.143177      2.796308
  Al      0.131448     -0.265138     -0.003468
  H      -0.201858     -1.812338      0.669288
  H      -0.965804     -0.000743     -1.157971
  H      -0.707554      0.618326      1.207893
  H      -1.809114      1.955278      3.086264
  H      -0.594537     -0.431160      3.521220
  H       1.742335     -0.212778     -0.086997
  Al      0.607462     -3.093547      1.478789
  H      -0.164643     -2.636338      2.938140
  H      -0.484070     -4.303378      1.694521
  H       0.942259      1.807954      3.296540
  Al      0.552919     -1.560289      4.113130
  H       0.154965     -2.157837      5.720689
  H       2.030935     -1.240719      3.483814
  H       1.894806     -3.630746      0.671938
  Al      0.940826     -3.717395      5.722520
  H       2.161726     -3.910978      6.816720
  H       1.124488     -4.217704      4.193019
  H      -0.589798     -4.048670      6.847631
20
Coordinates from ORCA-job run E -1219.862162516762
  Al     -0.458592      1.158337      2.824051
  Al      0.132672     -0.285669     -0.002624
  H      -0.228982     -1.835961      0.663608
  H      -0.953256     -0.018633     -1.167162
  H      -0.654591      0.602799      1.245179
  H      -1.821394      1.970148      3.145421
  H      -0.614445     -0.425519      3.552538
  H       1.747564     -0.199401     -0.064384
  Al      0.557139     -3.136719      1.481558
  H      -0.193965     -2.629641      2.982312
  H      -0.549778     -4.343961      1.609849
  H       0.974878      1.769529      3.245684
  Al      0.540106     -1.569806      4.107980
  H       0.156670     -2.126059      5.667766
  H       2.081484     -1.223540      3.477309
  H       1.925690     -3.589928      0.758996
  Al      0.914338     -3.735623      5.765587
  H       2.158021     -3.828740      6.797174
  H       1.153730     -4.213325      4.226842
  H      -0.541080     -4.053310      6.692304
20
Coordinates from ORCA-job run E -1219.875294132215
  Al     -0.464196      1.170497      2.846299
  Al      0.134824     -0.301153     -0.004553
  H      -0.248502     -1.853812      0.654371
  H      -0.939761     -0.031623     -1.177765
  H      -0.621080      0.590345      1.259959
  H      -1.821229      1.980682      3.186628
  H      -0.623854     -0.419435      3.575198
  H       1.748005     -0.194121     -0.044825
  Al      0.515530     -3.171552      1.479340
  H      -0.216573     -2.629575      2.999885
  H      -0.599269     -4.368816      1.538993
  H       1.000328      1.741057      3.211143
  Al      0.533085     -1.579082      4.100153
  H       0.158255     -2.108291      5.636766
  H       2.097550     -1.220390      3.478787
  H       1.942346     -3.542512      0.828299
  Al      0.892749     -3.749195      5.799079
  H       2.167260     -3.761157      6.792691
  H       1.173314     -4.190432      4.251379
  H      -0.502572     -4.076454      6.598163
20
Coordinates from ORCA-job run E -1219.882617762906
  Al     -0.462356      1.177662      2.860310
  Al      0.135122     -0.310952     -0.006442
  H      -0.262026     -1.866163      0.644529
  H      -0.931145     -0.039393     -1.185142
  H      -0.600227      0.582611      1.268977
  H      -1.815021      1.984168      3.212837
  H      -0.623912     -0.415560      3.589103
  H       1.743809     -0.190337     -0.029756
  Al      0.484363     -3.198487      1.472955
  H      -0.229799     -2.634699      3.000560
  H      -0.632339     -4.384542      1.479770
  H       1.021064      1.720383      3.182510
  Al      0.534424     -1.588044      4.089040
  H       0.162728     -2.098734      5.621484
  H       2.094530     -1.223599      3.483103
  H       1.951813     -3.494574      0.881536
  Al      0.885469     -3.758594      5.824452
  H       2.175972     -3.709769      6.787913
  H       1.189006     -4.158262      4.267275
  H      -0.495266     -4.108135      6.564977
20
Coordinates from ORCA-job run E -1219.892276737830
  Al     -0.451200      1.185435      2.878729
  Al      0.132567     -0.323352     -0.010567
  H      -0.280793     -1.883136      0.626144
  H      -0.922346     -0.049940     -1.196562
  H      -0.577114      0.573010      1.280493
  H      -1.798362      1.983536      3.247676
  H      -0.614508     -0.411387      3.606041
  H       1.732101     -0.182914     -0.008653
  Al      0.439206     -3.238448      1.457513
  H      -0.244241     -2.647761      2.986762
  H      -0.674117     -4.406178      1.385027
  H       1.054583      1.690979      3.139474
  Al      0.544988     -1.604629      4.066377
  H       0.172686     -2.088783      5.607009
  H       2.074065     -1.235351      3.495094
  H       1.958226     -3.411431      0.966561
  Al      0.882181     -3.770939      5.863727
  H       2.188298     -3.634953      6.786647
  H       1.208504     -4.093805      4.290241
  H      -0.498514     -4.164974      6.542258
20
Coordinates from ORCA-job run E -1219.901026729133
  Al     -0.426005      1.190974      2.902572
  Al      0.126606     -0.336831     -0.017287
  H      -0.306401     -1.903365      0.596389
  H      -0.912427     -0.059981     -1.214607
  H      -0.555488      0.562443      1.296992
  H      -1.770133      1.974908      3.290430
  H      -0.591489     -0.408818      3.627862
  H       1.715390     -0.170245      0.019250
  Al      0.377150     -3.291087      1.428502
  H      -0.260932     -2.667935      2.954509
  H      -0.725759     -4.436153      1.249611
  H       1.101805      1.654347      3.088945
  Al      0.566383     -1.633880      4.029054
  H       0.187077     -2.078684      5.586831
  H       2.042384     -1.258703      3.512129
  H       1.941433     -3.299631      1.085775
  Al      0.886235     -3.781891      5.920098
  H       2.199521     -3.520386      6.803758
  H       1.242805     -3.990420      4.328198
  H      -0.511945     -4.259685      6.520979
20
Coordinates from ORCA-job run E -1219.903951216022
  Al     -0.404493      1.191585      2.919762
  Al      0.123960     -0.343062     -0.023195
  H      -0.326499     -1.912880      0.571593
  H      -0.898731     -0.060077     -1.233892
  H      -0.549794      0.557477      1.307220
  H      -1.753553      1.964193      3.313790
  H      -0.571708     -0.406837      3.648044
  H       1.710903     -0.162479      0.040991
  Al      0.327549     -3.323356      1.403588
  H      -0.277975     -2.677991      2.928665
  H      -0.771377     -4.456506      1.157002
  H       1.132294      1.638472      3.072232
  Al      0.581193     -1.658542      4.001819
  H       0.192085     -2.072634      5.569074
  H       2.033385     -1.274744      3.517973
  H       1.908954     -3.253668      1.163231
  Al      0.898335     -3.781807      5.958998
  H       2.197344     -3.419919      6.839427
  H       1.285939     -3.915300      4.359082
  H      -0.511601     -4.346945      6.494586
20
Coordinates from ORCA-job run E -1219.905534717787
  Al     -0.389942      1.188495      2.928820
  Al      0.126008     -0.343867     -0.025529
  H      -0.341774     -1.913965      0.553538
  H      -0.878035     -0.051804     -1.251469
  H      -0.554239      0.556881      1.313892
  H      -1.749475      1.951827      3.316822
  H      -0.556517     -0.403565      3.666605
  H       1.716582     -0.162038      0.062281
  Al      0.285730     -3.339805      1.385324
  H      -0.296580     -2.679896      2.911336
  H      -0.817976     -4.466706      1.102301
  H       1.147000      1.641077      3.078234
  Al      0.589935     -1.676944      3.984523
  H       0.187641     -2.067648      5.558707
  H       2.040073     -1.282247      3.516273
  H       1.877021     -3.263645      1.206689
  Al      0.915250     -3.774457      5.980294
  H       2.184144     -3.339160      6.882434
  H       1.328300     -3.866392      4.376071
  H      -0.486938     -4.421163      6.462845
20
Coordinates from ORCA-job run E -1219.907491771320
  Al     -0.373906      1.179848      2.936392
  Al      0.132146     -0.341533     -0.025415
  H      -0.359205     -1.909891      0.533433
  H      -0.842318     -0.034921     -1.274263
  H      -0.569502      0.556822      1.320543
  H      -1.752370      1.929947      3.306252
  H      -0.533863     -0.397942      3.692691
  H       1.730597     -0.169346      0.093703
  Al      0.230666     -3.351680      1.364340
  H      -0.321960     -2.677135      2.891989
  H      -0.885405     -4.473047      1.050907
  H       1.154915      1.661561      3.102512
  Al      0.601970     -1.699709      3.967004
  H       0.173630     -2.057254      5.552820
  H       2.060710     -1.285696      3.511702
  H       1.833180     -3.320372      1.247540
  Al      0.941995     -3.756680      5.995144
  H       2.152152     -3.243813      6.945120
  H       1.379754     -3.808925      4.384027
  H      -0.426976     -4.515253      6.413550
20
Coordinates from ORCA-job run E -1219.909009221970
  Al     -0.365195      1.166320      2.940432
  Al      0.142886     -0.337405     -0.020002
  H      -0.370597     -1.903083      0.520769
  H      -0.799695     -0.015100     -1.290713
  H      -0.585721      0.553924      1.325748
  H      -1.762730      1.902664      3.286929
  H      -0.509617     -0.393749      3.717071
  H       1.747986     -0.186781      0.128206
  Al      0.181352     -3.354979      1.349662
  H      -0.342197     -2.671282      2.878502
  H      -0.949273     -4.470066      1.023052
  H       1.147004      1.693732      3.131832
  Al      0.616157     -1.720248      3.955533
  H       0.155518     -2.041801      5.554057
  H       2.084824     -1.283333      3.506814
  H       1.789107     -3.403264      1.272930
  Al      0.968141     -3.732023      5.994166
  H       2.114828     -3.176185      6.996168
  H       1.416066     -3.753879      4.374828
  H      -0.352632     -4.588483      6.364003
20
Coordinates from ORCA-job run E -1219.910116004492
  Al     -0.367030      1.150284      2.944695
  Al      0.159085     -0.334184     -0.009789
  H      -0.374972     -1.897627      0.515768
  H      -0.751994      0.003380     -1.298944
  H      -0.593290      0.545624      1.329015
  H      -1.779590      1.872667      3.269813
  H      -0.487239     -0.393389      3.737824
  H       1.766101     -0.213070      0.164922
  Al      0.141051     -3.354260      1.342229
  H      -0.354039     -2.665085      2.872277
  H      -1.002631     -4.459194      1.014062
  H       1.123973      1.728049      3.155236
  Al      0.632158     -1.738365      3.949273
  H       0.140616     -2.023025      5.558257
  H       2.104235     -1.276612      3.501524
  H       1.746147     -3.486544      1.287088
  Al      0.989072     -3.704441      5.980755
  H       2.089740     -3.140431      7.022106
  H       1.432546     -3.696492      4.353370
  H      -0.287731     -4.632305      6.320510
20
Coordinates from ORCA-job run E -1219.911208279750
  Al     -0.380631      1.130121      2.951591
  Al      0.183439     -0.332105      0.007040
  H      -0.373684     -1.894396      0.516511
  H      -0.692402      0.022697     -1.299611
  H      -0.589584      0.529948      1.332372
  H      -1.806216      1.835141      3.256530
  H      -0.464386     -0.398282      3.756982
  H       1.786892     -0.250646      0.210262
  Al      0.103356     -3.352401      1.339740
  H      -0.358558     -2.659618      2.872288
  H      -1.053203     -4.440793      1.017517
  H       1.083876      1.765476      3.171706
  Al      0.652994     -1.757901      3.946161
  H       0.131759     -1.998752      5.564288
  H       2.119926     -1.264777      3.493681
  H       1.698583     -3.571460      1.293797
  Al      1.005367     -3.671391      5.956505
  H       2.083174     -3.127044      7.024854
  H       1.430962     -3.627404      4.321259
  H      -0.235454     -4.651434      6.276516
20
Coordinates from ORCA-job run E -1219.912122769203
  Al     -0.405453      1.111344      2.960805
  Al      0.211400     -0.331792      0.027256
  H      -0.367965     -1.895077      0.521372
  H      -0.633057      0.039261     -1.292412
  H      -0.573186      0.509532      1.335743
  H      -1.840024      1.797296      3.251971
  H      -0.446740     -0.408053      3.769680
  H       1.805998     -0.290900      0.255774
  Al      0.075759     -3.351745      1.341708
  H      -0.354015     -2.657182      2.879096
  H      -1.091506     -4.419802      1.031088
  H       1.035156      1.796996      3.174107
  Al      0.675413     -1.774688      3.946522
  H       0.138115     -1.974521      5.570698
  H       2.127598     -1.248635      3.481852
  H       1.659193     -3.631248      1.288513
  Al      1.011842     -3.640738      5.929999
  H       2.101672     -3.138883      7.002387
  H       1.415336     -3.569043      4.290957
  H      -0.219328     -4.637143      6.242874
20
Coordinates from ORCA-job run E -1219.912854779692
  Al     -0.432215      1.102164      2.968187
  Al      0.232601     -0.332193      0.042903
  H      -0.362789     -1.898440      0.524682
  H      -0.594304      0.050021     -1.282628
  H      -0.552475      0.493534      1.339248
  H      -1.871001      1.772220      3.254911
  H      -0.440605     -0.418144      3.771980
  H       1.818163     -0.317344      0.287064
  Al      0.063750     -3.353987      1.344165
  H      -0.344979     -2.658739      2.888149
  H      -1.111119     -4.404997      1.045509
  H       0.998026      1.812606      3.161660
  Al      0.691312     -1.782862      3.948444
  H       0.160756     -1.961149      5.574988
  H       2.125048     -1.233917      3.466948
  H       1.642673     -3.642839      1.270921
  Al      1.008130     -3.624002      5.916986
  H       2.132676     -3.165518      6.971969
  H       1.406199     -3.554422      4.281286
  H      -0.243636     -4.597012      6.232619
20
Coordinates from ORCA-job run E -1219.913645261631
  Al     -0.461534      1.095472      2.978731
  Al      0.256098     -0.332412      0.059910
  H      -0.361915     -1.902897      0.519742
  H      -0.549760      0.064354     -1.273669
  H      -0.530998      0.476520      1.346990
  H      -1.908103      1.742478      3.259999
  H      -0.434287     -0.430931      3.771828
  H       1.832496     -0.342079      0.326390
  Al      0.044243     -3.361867      1.339254
  H      -0.337828     -2.664410      2.893327
  H      -1.143510     -4.391776      1.048282
  H       0.963166      1.824475      3.144829
  Al      0.709128     -1.794596      3.945628
  H       0.196506     -1.951713      5.576588
  H       2.117462     -1.220664      3.443425
  H       1.624100     -3.634637      1.248311
  Al      1.002221     -3.607252      5.917565
  H       2.165898     -3.183195      6.947318
  H       1.421160     -3.554545      4.291809
  H      -0.278333     -4.545346      6.223733
20
Coordinates from ORCA-job run E -1219.914273632053
  Al     -0.484733      1.088180      2.991301
  Al      0.279919     -0.331962      0.077207
  H      -0.365754     -1.905433      0.505832
  H      -0.496626      0.082005     -1.269744
  H      -0.522271      0.460503      1.358146
  H      -1.946648      1.704124      3.259584
  H      -0.420899     -0.442673      3.773524
  H       1.850371     -0.364707      0.374749
  Al      0.013338     -3.371452      1.326362
  H      -0.335315     -2.670118      2.891878
  H      -1.194160     -4.380780      1.039221
  H       0.931392      1.841037      3.140724
  Al      0.730730     -1.811562      3.936416
  H       0.232131     -1.940779      5.576171
  H       2.116337     -1.209201      3.414605
  H       1.595457     -3.636695      1.230376
  Al      0.999942     -3.585640      5.926845
  H       2.188163     -3.179210      6.939525
  H       1.452965     -3.554359      4.310023
  H      -0.298128     -4.506298      6.207245
20
Coordinates from ORCA-job run E -1219.914806204142
  Al     -0.501345      1.080688      3.003140
  Al      0.300398     -0.330207      0.093071
  H      -0.371009     -1.905701      0.485804
  H      -0.444261      0.100500     -1.269046
  H      -0.529288      0.446317      1.370670
  H      -1.984002      1.658975      3.253003
  H      -0.400736     -0.452232      3.774823
  H       1.868432     -0.381079      0.423809
  Al     -0.017852     -3.378946      1.309473
  H      -0.331465     -2.674470      2.886851
  H      -1.248873     -4.371624      1.029643
  H       0.901855      1.863172      3.149070
  Al      0.756844     -1.829139      3.923920
  H       0.266971     -1.926885      5.576008
  H       2.124083     -1.197255      3.383041
  H       1.566130     -3.650502      1.213156
  Al      0.997205     -3.561416      5.940867
  H       2.202199     -3.170075      6.941454
  H       1.482137     -3.563095      4.327786
  H      -0.311212     -4.472045      6.193447
20
Coordinates from ORCA-job run E -1219.915136632850
  Al     -0.507460      1.073463      3.011113
  Al      0.311041     -0.327548      0.102402
  H      -0.374847     -1.904348      0.466344
  H      -0.410192      0.114685     -1.270561
  H      -0.547295      0.435831      1.380007
  H      -2.008263      1.618612      3.245653
  H      -0.377658     -0.458015      3.775958
  H       1.879520     -0.386510      0.456372
  Al     -0.037644     -3.381403      1.294927
  H      -0.324118     -2.676132      2.880590
  H      -1.286687     -4.364922      1.025694
  H       0.880729      1.884141      3.163739
  Al      0.782246     -1.842559      3.912823
  H       0.290531     -1.912064      5.576512
  H       2.138580     -1.189307      3.360179
  H       1.545690     -3.673006      1.202722
  Al      0.992317     -3.541425      5.953239
  H       2.204967     -3.165567      6.948617
  H       1.492249     -3.568597      4.335854
  H      -0.317497     -4.450349      6.187805
20
Coordinates from ORCA-job run E -1219.915328096386
  Al     -0.506820      1.068902      3.013261
  Al      0.309787     -0.324343      0.102412
  H      -0.376303     -1.903084      0.451538
  H      -0.405202      0.122528     -1.272980
  H      -0.565419      0.430792      1.384012
  H      -2.017763      1.593246      3.244108
  H      -0.359068     -0.460505      3.775351
  H       1.880871     -0.379334      0.461830
  Al     -0.038459     -3.378997      1.286552
  H      -0.312007     -2.675301      2.876968
  H      -1.295880     -4.361214      1.032188
  H       0.870458      1.896961      3.172243
  Al      0.801889     -1.847314      3.907375
  H       0.303592     -1.901917      5.577459
  H       2.155082     -1.185904      3.349088
  H       1.542350     -3.689503      1.192903
  Al      0.982945     -3.531368      5.963899
  H       2.200315     -3.177518      6.957590
  H       1.486806     -3.576375      4.339236
  H      -0.330963     -4.434771      6.194956
20
Coordinates from ORCA-job run E -1219.915484771175
  Al     -0.505358      1.062736      3.014163
  Al      0.304704     -0.321349      0.099281
  H      -0.377192     -1.902756      0.436801
  H      -0.409238      0.129656     -1.274846
  H      -0.580147      0.425945      1.385984
  H      -2.022349      1.569975      3.249609
  H      -0.339471     -0.463729      3.774874
  H       1.877323     -0.369367      0.457925
  Al     -0.033701     -3.374460      1.279800
  H      -0.296515     -2.673449      2.873469
  H      -1.295559     -4.355315      1.043224
  H       0.861187      1.906224      3.174769
  Al      0.822181     -1.850699      3.903333
  H       0.313258     -1.892054      5.577553
  H       2.172535     -1.186723      3.342012
  H       1.542645     -3.704923      1.182906
  Al      0.969886     -3.522988      5.974063
  H       2.191587     -3.197614      6.969766
  H       1.478530     -3.573674      4.341826
  H      -0.348095     -4.420457      6.203478
