84
Coordinates from ORCA-job run E -4464.499579078410
  Zr          0.31864150139906      1.69645773331218      1.75668806398657
  Zr          0.12594929562064     -2.01640672561801     -1.74216386277048
  Zr          1.81670111803550     -1.68788331144357      1.26871539028362
  Zr         -1.40945225350421      1.36749147187320     -1.24217027832638
  Zr          2.03439806283738      0.87629515980145     -1.47621743024961
  Zr         -1.61272758568097     -1.17637989712778      1.50420115010052
  O          -1.40009614856785      0.75004577951957      0.74594083979659
  O           1.86682819786224     -1.05383645229285     -0.71697872902155
  O          -0.15220500479006     -2.08493913028254      0.31193525652896
  O           0.62319184914306      1.80235884693652     -0.26226652374403
  O           0.03379863136010      0.06379144942058     -1.95450684773705
  O           0.39978582598006     -0.37115308420422      2.03139827217787
  O          -0.97949997016132      1.66295502717175      3.56890303540251
  O          -0.90060480491238      3.53575193367355      1.53215031718258
  O           2.15167722463553      1.34295136421889      2.98428477645608
  O           2.06081593959264      3.42117126269065      1.39950264559325
  O          -1.54333223422374     -3.52620819932032     -1.44092078733544
  O          -1.49269693387492     -1.65310065991310     -3.24855004625998
  O           1.34191004417537     -3.87296902326847     -1.52627853985652
  O           1.43918207415488     -1.99791424509562     -3.54550278137031
  O           1.07737189003518     -3.15808509140179      2.77792247380582
  O           2.75574290657844     -0.83828462858182      3.16738193015130
  O           2.43661929110757     -3.66363754756208      0.45237012168917
  O           3.95165520284873     -1.08484943884788      0.88882993149778
  O          -3.51799444534776      0.80697398452911     -0.79660879431892
  O          -1.95013591651098      3.36208424025786     -0.46622379858352
  O          -2.33552684043912      0.45604437495203     -3.08700277154815
  O          -0.66581571720067      2.79479180689882     -2.79764344775539
  O           1.56481739103337      2.42304003457748     -2.99238519080172
  O           3.08336393031894      2.68087740486421     -0.49146778715210
  O           2.63613759944600     -0.07404741008832     -3.39541971175870
  O           4.13072180306000      0.32587496883571     -0.88828596299011
  O          -3.73203897402071     -0.45497636061113      1.08967536560444
  O          -2.15471906250368     -0.27337599521250      3.46552247214023
  O          -2.71261964333722     -2.73141364168096      0.34058696625187
  O          -1.15742911498169     -2.79378885862433      2.95594045581378
  C          -1.80671516894930      0.80977423784707      4.02290989716393
  C          -1.65948326387086      3.97164529232460      0.61052053656352
  C           2.68522869903675      0.34584459061363      3.58945197566280
  C           2.88828404723392      3.52665162344260      0.40965965375760
  C          -2.42599760494320     -3.60903634360629     -0.53956362692177
  C          -2.13749649378773     -0.64491357002866     -3.68165181530726
  C           2.13723450643906     -4.27035707996913     -0.62197067052625
  C           2.29503556472948     -1.15801991123436     -3.96045367388162
  C          -0.07379358663266     -3.38604352639594      3.25715388195376
  C           4.58602259136147     -0.51284679239826     -0.05197502295067
  C          -4.16080518013872      0.33508418569108      0.20074463316350
  C           0.47685947326188      3.00545183827294     -3.30064264665858
  H          -2.60071025735856     -0.75109763656069     -4.70537060304378
  H           2.63141414645529     -5.27023154787708     -0.78895451574907
  H           3.14942394463708      0.56536720434051      4.59349908321252
  H          -2.11416437488738      4.98792702124295      0.76679416485931
  H           2.80707861275904     -1.39928186714372     -4.93582166285737
  H           0.54025315131433      3.79108648521932     -4.10687382327209
  H           3.49415460441059      4.47738591784302      0.37499273902826
  H           5.68307410941688     -0.76269547760893     -0.13991512250577
  H          -3.04442338082925     -4.55298740661605     -0.52104630477222
  H          -5.24171185588209      0.64947505986986      0.28323599117131
  H          -2.28246170641920      1.04937898402913      5.01692921853343
  H          -0.14697985321641     -4.20143316219099      4.03250600860090
  Al         -2.66444531615312      4.98012022238649      4.41107501852183
  Al         -2.20856883995969      8.03590654973136      4.81811308077955
  H          -1.30029157589094      8.44483857429509      6.22048781362972
  H          -1.16651010885956      7.95882354187520      3.56823965899555
  H          -2.72428563509658      6.48185597989310      5.36189326320759
  H          -2.73235619327496      5.54644442142058      2.90055362427894
  H          -1.14807975510844      4.46818032355353      4.93308728583940
  H          -3.51732673712398      8.97306185743171      4.79011030878049
  Al          0.10791461601507      7.75890304966430      7.03680851800297
  H           0.26734962361595      6.31538636013729      6.15659206200269
  H           1.30574792788036      8.78197341961081      6.69087410501362
  H          -3.79903225509568      4.04995704401081      5.09369793656569
  Al          0.64007369506995      4.85291326670376      5.12648825872656
  H           0.18390222539988      5.99387771715502      3.81170985717560
  H           0.84979448876654      3.78518424400286      6.32804790918177
  H          -0.48174179022555      7.39760934322314      8.49719478768094
  Al          0.75118400537352      7.03723650588462      2.60610814945065
  H           1.53529481145412      8.32876252857004      3.17088053811691
  H          -0.08890703311086      6.87435770522942      1.23410693272601
  Al          2.43833695516381      4.44782063275891      3.15755436145696
  H           4.00966406367107      4.07862231453518      3.20146816644956
  H           0.99220365867116      3.69493811541003      3.68890126912506
  H           2.29572098714617      5.32416487513656      4.74431987537272
  H           2.16582275587166      5.92715910966967      2.32295054679323
