20
Coordinates from ORCA-job run E -1220.447495285694
  Al         -0.53075865107819      0.99512991940040      2.88955259578056
  Al          0.11628806128294     -0.46860211360034      0.40890596422765
  H          -0.44910784874847     -2.09293599040345      0.30920680383382
  H          -0.19393786989052      0.20632253684230     -0.99080750476922
  H          -1.04660671717586     -0.00073690862214      1.56711006994536
  H          -1.87737020803354      1.23456767649879      3.70271385988181
  H           0.41894615419769     -0.10269303420525      3.73592143935043
  H           1.50915039031453     -0.55189590904572      1.18791050565327
  Al          0.07415477217009     -3.29983465593826      1.41872852659777
  H          -0.03118707549419     -2.21516560344945      2.74076749503935
  H          -1.15249799691753     -4.29145530002218      1.59641703953849
  H           0.40263230678376      2.11185654352852      2.23824669497603
  Al          1.17989477700974     -1.69831733954651      3.80583704779032
  H           0.47793438086682     -1.77772015214175      5.38331430907426
  H           2.69188232127936     -1.33115918976230      3.54220044742930
  H           1.59901183758214     -3.65732664832323      1.15933256473318
  Al          0.69306205607693     -3.49698649873109      5.68659233947195
  H           1.77725677172865     -3.61528699155049      6.84224545456336
  H           1.42441163696184     -3.51582503683365      4.15829302310932
  H          -0.75694909891627     -4.14695530409395      5.62750132377250
