92
Coordinates from ORCA-job run E -4952.478332585354
  Zr         -0.25883271832253      1.79821035928624      2.00475534448197
  Zr          0.51326584158101     -1.76842532845839     -1.58653239952490
  Zr          2.01331157511701     -1.14764961228772      1.47625071595483
  Zr         -1.74906553038036      1.19048502024613     -1.04813214506289
  Zr          1.70459233549880      1.47126796270751     -1.18269029492525
  Zr         -1.46803409146887     -1.43916358238556      1.57517063573804
  O          -1.69227279828377      0.51001316049508      0.90220458427262
  O           1.93186846506839     -0.46053869134307     -0.48108316205264
  O           0.19105092604790     -1.95918346664062      0.44793977458375
  O           0.04454415097776      2.00622207374843     -0.04282715311787
  O          -0.06800244969981      0.22537759571171     -1.77406616440510
  O           0.31630840989970     -0.18632826046738      2.17687901324552
  O          -1.59655580687882      1.41317568279744      3.73695798247221
  O          -1.85736358030118      3.34930947032240      1.80293238682410
  O           1.34936087816892      1.80620635721058      3.57167700686811
  O           1.01103083156930      3.66368999142963      1.76949189873130
  O          -0.73770304212002     -3.65018022154984     -1.34692134671421
  O          -1.09927382745459     -1.78919242774600     -3.14285848230914
  O           2.13353139799869     -3.28884291416337     -1.40753593985934
  O           1.82450667921683     -1.36637553362884     -3.34496829565358
  O           1.56736434797459     -2.70784529037863      2.99665732176739
  O           2.72063343467494      0.02026036704386      3.25479414716315
  O           2.99579113506192     -2.97766167170671      0.66692277837769
  O           4.05779537413317     -0.27973651830162      1.04246840579379
  O          -3.83235572650399      0.41470895869917     -0.62706210374430
  O          -2.80006168319605      3.03956156650241     -0.23897695433132
  O          -2.47225489227586     -0.01760946061538     -2.78981410783197
  O          -1.35898375166607      2.73442381102715     -2.59621979121889
  O           0.89464202783270      2.95296490166060     -2.66011419377873
  O           2.32942501844248      3.28811351554872     -0.04653746723894
  O           2.51629299176157      0.78276693036234     -3.14257657080329
  O           3.87769953135468      1.28177168919070     -0.61114169863183
  O          -3.60764222272283     -1.26088576367089      0.89914007236697
  O          -2.33986453517321     -0.71541220874623      3.50007177801967
  O          -2.05683286004715     -3.29482296117613      0.47661970068229
  O          -0.69198739132652     -2.87748106147957      3.09138838352425
  C          -2.26998313265602      0.39962173430373      4.10027323884378
  C          -2.66065363100225      3.64802522358756      0.87182411548541
  C           2.24195691801242      0.97915306979322      3.93435614984370
  C           1.83115854875797      4.01679209642307      0.87168195954038
  C          -1.55367248106671     -4.01182409841137     -0.44773749002614
  C          -1.99045351895235     -0.95805057041876     -3.49465121174569
  C           2.91680116936917     -3.57596414767318     -0.44983361884440
  C           2.44802189746924     -0.33464698679417     -3.74026861404539
  C           0.48463059418148     -3.19430260987164      3.44698558839228
  C           4.52247376730949      0.49553986616779      0.14962301519131
  C          -4.27732700592660     -0.43034705849695      0.21178362382739
  C          -0.27873324150601      3.25461435080560     -3.02843562609183
  H          -2.41415012498737     -1.07160692773015     -4.53537910965055
  H           3.60966188098260     -4.45102877913034     -0.60715131248994
  H           2.66652311256764      1.11841743968685      4.97776923101420
  H          -3.32213294078067      4.54444964212051      1.04681767510414
  H           2.99690708778641     -0.41759513670122     -4.72148799492166
  H          -0.38517181442328      4.05772141187266     -3.81161619470652
  H           2.17609134013145      5.09191794523935      0.89600923236271
  H           5.64579168028404      0.49740766445544      0.02795782560846
  H          -1.88858462715726     -5.09026395859463     -0.47648878472024
  H          -5.39713378982703     -0.45259034788165      0.34981799615811
  H          -2.86388590898128      0.50150534952120      5.05309716157051
  H           0.57732527615143     -3.98718280690598      4.24323297205031
  Al         -6.99719904811824      2.58124169851677     -5.57037053727848
  Al         -9.41092614500566      1.84323667158264     -3.63027889324378
  Al         -6.30402006213036      1.03550431186999     -3.41117354121062
  Al         -3.88484153481392      2.49120706262839     -4.96895710354558
  Al         -5.91480515954594      3.26355218675219     -0.87086748272552
  Al         -8.65840861554843      4.84026903640345     -2.06311241384569
  Al         -4.37857337166885      5.33725979022820     -3.10710106723024
  Al         -6.16349653839187      6.45444256093303     -0.56133230657372
  H          -6.08106038412213      7.61890091166416      0.55048433334909
  H          -5.81088492269970      4.91319929706247      0.03364279483006
  H          -5.04950454969451      6.53793246574485     -1.79775683940793
  H          -7.64822503819776      6.25610918641921     -1.29507782031002
  H          -8.35719698388775      5.32198365886403     -3.57085760712963
  H          -9.86370408943366      5.04813392904645     -1.01219684214387
  H          -9.48707972854346      3.17641053284950     -2.65367678357957
  H         -10.74420280256358      0.94186720287739     -3.72633903841137
  H          -7.49695600355469      3.71982461773049     -1.39646747869769
  H          -8.08957505589079      0.96884203705133     -3.04215310287055
  H          -6.06693683609050      1.85004583768555     -1.90424417142539
  H          -6.05992589140170     -0.54348530329856     -3.17217913435283
  H          -4.60076392651477      1.47446441496034     -3.84216164258752
  H          -3.67886004481518      3.94209100492007     -4.21256804669470
  H          -2.62432531865229      1.84715947352592     -5.74534845661976
  H          -2.87572974226035      5.82194068618129     -2.76478866945239
  H          -5.85045605331899      2.53111920843816      0.56145462672011
  H          -4.93078918715674      3.98946082465427     -2.08722655994768
  H          -7.42926828002091      3.37177081850666     -6.90029402526078
  H          -8.81674666695642      2.35113759487256     -5.11982926035573
  H          -5.19842064723477      2.76617421476798     -5.99460117738342
  H          -6.72977427411248      0.91372726502059     -5.26856141785179
  H          -5.51402198523479      5.72503480393284     -4.19914845939297
  H          -6.66878056847117      2.91792155422276     -3.94518773571709
