16
Coordinates from ORCA-job run E -975.274306126235
  Al     -0.334910      1.128240      2.788780
  Al      0.131570     -0.237880     -0.054440
  H      -0.138010     -1.761440      0.653210
  H      -1.048820      0.292520     -1.337460
  H       1.042610      1.359110      0.930570
  H      -1.687050      1.948480      2.998140
  H      -0.504810     -0.419960      3.476290
  H       1.760240     -0.499040     -0.122370
  Al      0.695350     -2.986740      1.488620
  H      -0.073070     -2.653160      2.759770
  H       0.050980     -5.064280      0.811520
  H       0.875790      1.897910      3.492360
  Al      0.594870     -1.544490      4.126330
  H      -0.265120     -0.955950      5.002480
  H       1.829450     -2.119420      4.993890
  H       1.524190     -2.978700      1.706540
16
Coordinates from ORCA-job run E -975.455762419370
  Al     -0.312943      1.138635      2.765466
  Al      0.127364     -0.240594     -0.056680
  H      -0.149608     -1.767760      0.642640
  H      -1.032693      0.286456     -1.309099
  H       0.947765      1.312533      1.008593
  H      -1.665196      1.969979      2.961651
  H      -0.505099     -0.404662      3.455933
  H       1.753926     -0.493938     -0.140095
  Al      0.690246     -2.992292      1.477658
  H      -0.091695     -2.651632      2.771422
  H       0.052835     -5.013634      0.820033
  H       0.911373      1.892374      3.475379
  Al      0.590965     -1.546449      4.117794
  H      -0.300700     -0.968146      5.039380
  H       1.831759     -2.131410      4.970261
  H       1.604960     -2.984260      1.713894
16
Coordinates from ORCA-job run E -975.613638096817
  Al     -0.299109      1.146303      2.751727
  Al      0.117944     -0.241681     -0.059883
  H      -0.166558     -1.770746      0.633455
  H      -1.029799      0.288898     -1.292543
  H       0.896931      1.278805      1.056861
  H      -1.648160      1.989426      2.942505
  H      -0.509033     -0.393831      3.443188
  H       1.741765     -0.492684     -0.155803
  Al      0.676656     -2.998001      1.465640
  H      -0.113508     -2.649165      2.777565
  H       0.057041     -4.979672      0.827101
  H       0.936836      1.886541      3.465680
  Al      0.584499     -1.547619      4.108902
  H      -0.333590     -0.969373      5.072060
  H       1.828090     -2.140938      4.951627
  H       1.713255     -3.001061      1.726148
16
Coordinates from ORCA-job run E -975.712178603797
  Al     -0.282671      1.155094      2.736322
  Al      0.109925     -0.242625     -0.062644
  H      -0.183002     -1.773814      0.624628
  H      -1.024183      0.289983     -1.273331
  H       0.834313      1.239649      1.108260
  H      -1.628828      2.009571      2.919152
  H      -0.511983     -0.381471      3.428996
  H       1.730996     -0.488757     -0.171510
  Al      0.663689     -3.003193      1.454821
  H      -0.134449     -2.646230      2.784344
  H       0.061701     -4.938992      0.836694
  H       0.964623      1.880285      3.456096
  Al      0.577232     -1.548346      4.100355
  H      -0.366266     -0.977415      5.103309
  H       1.824707     -2.148667      4.932173
  H       1.817454     -3.019874      1.736566
16
Coordinates from ORCA-job run E -975.794276288924
  Al     -0.247523      1.171634      2.707059
  Al      0.105196     -0.245332     -0.066521
  H      -0.202860     -1.780880      0.611022
  H      -1.003502      0.283563     -1.235551
  H       0.696781      1.156551      1.196258
  H      -1.592427      2.039697      2.868401
  H      -0.511240     -0.357852      3.402245
  H       1.722119     -0.473919     -0.195695
  Al      0.650954     -3.009952      1.442711
  H      -0.161291     -2.642031      2.799044
  H       0.067714     -4.850268      0.858733
  H       1.015452      1.869280      3.443130
  Al      0.565665     -1.548743      4.089446
  H      -0.417698     -1.015258      5.149279
  H       1.825700     -2.153994      4.897759
  H       1.940220     -3.037295      1.746908
16
Coordinates from ORCA-job run E -975.850969113785
  Al     -0.214256      1.200275      2.703224
  Al      0.113178     -0.250254     -0.086019
  H      -0.222558     -1.786837      0.596185
  H      -0.971656      0.266190     -1.194744
  H       0.586578      1.041863      1.182711
  H      -1.568301      2.067842      2.830209
  H      -0.514488     -0.324812      3.385909
  H       1.719340     -0.470739     -0.255351
  Al      0.637928     -3.016699      1.435865
  H      -0.187801     -2.635080      2.828262
  H       0.070072     -4.690172      0.905740
  H       1.059116      1.859312      3.475819
  Al      0.542200     -1.549107      4.089997
  H      -0.492716     -1.117796      5.220961
  H       1.843575     -2.141110      4.839104
  H       2.053050     -3.047674      1.756358
16
Coordinates from ORCA-job run E -975.883580774789
  Al     -0.184281      1.228212      2.712460
  Al      0.136805     -0.254372     -0.106395
  H      -0.236598     -1.787694      0.587193
  H      -0.947131      0.253693     -1.165787
  H       0.502624      0.929391      1.140946
  H      -1.551866      2.085868      2.787592
  H      -0.518178     -0.293010      3.381529
  H       1.730072     -0.475203     -0.325623
  Al      0.625160     -3.020309      1.439397
  H      -0.212214     -2.628581      2.868844
  H       0.065163     -4.519289      0.960183
  H       1.098776      1.846789      3.511031
  Al      0.504654     -1.551382      4.107095
  H      -0.573780     -1.260558      5.299180
  H       1.878664     -2.101749      4.748016
  H       2.135391     -3.046608      1.768569
16
Coordinates from ORCA-job run E -975.897269853996
  Al     -0.153548      1.244457      2.705134
  Al      0.165629     -0.254018     -0.111742
  H      -0.242748     -1.783794      0.586694
  H      -0.936340      0.250629     -1.144868
  H       0.417453      0.863987      1.180695
  H      -1.531093      2.090302      2.720262
  H      -0.515329     -0.271391      3.375292
  H       1.750392     -0.468964     -0.370093
  Al      0.616371     -3.017991      1.450572
  H      -0.229888     -2.623578      2.908805
  H       0.043860     -4.439118      0.990633
  H       1.139906      1.832952      3.507239
  Al      0.466419     -1.552292      4.131291
  H      -0.635477     -1.385843      5.356933
  H       1.909300     -2.055133      4.642857
  H       2.188352     -3.025007      1.784525
16
Coordinates from ORCA-job run E -975.903891895290
  Al     -0.144725      1.264669      2.729489
  Al      0.193334     -0.255795     -0.127717
  H      -0.242192     -1.777845      0.583843
  H      -0.929681      0.246234     -1.146348
  H       0.403306      0.820729      1.151053
  H      -1.531005      2.094699      2.705910
  H      -0.517316     -0.256249      3.390805
  H       1.769859     -0.476943     -0.417648
  Al      0.609616     -3.014304      1.459220
  H      -0.239007     -2.616130      2.935027
  H       0.017301     -4.423827      1.003110
  H       1.153903      1.833489      3.530481
  Al      0.439159     -1.547530      4.156649
  H      -0.666668     -1.475515      5.397013
  H       1.925629     -2.008099      4.568353
  H       2.211746     -3.002382      1.794990
16
Coordinates from ORCA-job run E -975.912482650969
  Al     -0.125216      1.282024      2.746055
  Al      0.239429     -0.259422     -0.141236
  H      -0.238061     -1.770246      0.585064
  H      -0.924260      0.236912     -1.136798
  H       0.367216      0.790650      1.193464
  H      -1.520759      2.086130      2.651512
  H      -0.514930     -0.245440      3.407303
  H       1.804216     -0.482510     -0.479192
  Al      0.600175     -3.010309      1.474350
  H      -0.248180     -2.612048      2.974668
  H      -0.024688     -4.403799      1.024235
  H       1.185290      1.825007      3.528061
  Al      0.393806     -1.543757      4.198589
  H      -0.705471     -1.606679      5.442759
  H       1.935202     -1.925800      4.442510
  H       2.229490     -2.955515      1.802886
16
Coordinates from ORCA-job run E -975.919921892124
  Al     -0.107694      1.305770      2.788897
  Al      0.306126     -0.269363     -0.164844
  H      -0.224668     -1.761013      0.583348
  H      -0.911927      0.216087     -1.117282
  H       0.339309      0.736437      1.215445
  H      -1.511984      2.071455      2.610148
  H      -0.512405     -0.238413      3.444435
  H       1.853851     -0.493627     -0.564057
  Al      0.589060     -3.009409      1.486467
  H      -0.252056     -2.612417      3.011086
  H      -0.086381     -4.386591      1.046351
  H       1.219652      1.819180      3.537047
  Al      0.337344     -1.538050      4.254818
  H      -0.731897     -1.755332      5.483958
  H       1.919882     -1.788557      4.305742
  H       2.227049     -2.890958      1.792672
16
Coordinates from ORCA-job run E -975.923653111274
  Al     -0.096893      1.315567      2.819980
  Al      0.356652     -0.278860     -0.179282
  H      -0.209037     -1.755794      0.582786
  H      -0.899128      0.194905     -1.089250
  H       0.324920      0.703006      1.243240
  H      -1.503683      2.056487      2.587874
  H      -0.510730     -0.241131      3.474188
  H       1.891331     -0.497226     -0.622253
  Al      0.582898     -3.014259      1.488081
  H      -0.245531     -2.622871      3.024399
  H      -0.139663     -4.385830      1.056513
  H       1.248290      1.811117      3.532412
  Al      0.295915     -1.538433      4.292983
  H      -0.739083     -1.844653      5.499288
  H       1.892637     -1.655794      4.240017
  H       2.204363     -2.841030      1.763254
16
Coordinates from ORCA-job run E -975.925491219086
  Al     -0.092044      1.313764      2.837323
  Al      0.385599     -0.287188     -0.186172
  H      -0.196093     -1.755191      0.582881
  H      -0.889799      0.177751     -1.067037
  H       0.324940      0.686342      1.257903
  H      -1.498269      2.049317      2.588523
  H      -0.511948     -0.247824      3.493035
  H       1.913058     -0.496067     -0.653111
  Al      0.579399     -3.023875      1.481964
  H      -0.232752     -2.639988      3.020236
  H      -0.172893     -4.383368      1.062009
  H       1.270388      1.800938      3.520145
  Al      0.269797     -1.545930      4.311213
  H      -0.740292     -1.885377      5.499819
  H       1.871637     -1.545922      4.240601
  H       2.172531     -2.812182      1.724898
16
Coordinates from ORCA-job run E -975.926490089757
  Al     -0.088686      1.306942      2.838043
  Al      0.392707     -0.290928     -0.184824
  H      -0.188336     -1.756445      0.585411
  H      -0.884341      0.167752     -1.053075
  H       0.329688      0.681071      1.260676
  H      -1.493038      2.053387      2.601270
  H      -0.514731     -0.250839      3.496949
  H       1.918435     -0.487499     -0.658579
  Al      0.579679     -3.033120      1.474129
  H      -0.216696     -2.656358      3.010253
  H      -0.193404     -4.398588      1.060568
  H       1.286982      1.792520      3.505388
  Al      0.257276     -1.556228      4.312273
  H      -0.744028     -1.896144      5.493902
  H       1.861207     -1.472457      4.282386
  H       2.150546     -2.797866      1.689460
16
Coordinates from ORCA-job run E -975.927196093124
  Al     -0.084627      1.298349      2.832040
  Al      0.389263     -0.295039     -0.181971
  H      -0.185206     -1.759886      0.588609
  H      -0.885012      0.160933     -1.051258
  H       0.340066      0.680437      1.255649
  H      -1.485326      2.063909      2.620506
  H      -0.518914     -0.250603      3.495032
  H       1.915375     -0.481124     -0.655418
  Al      0.579140     -3.043707      1.466849
  H      -0.201037     -2.671655      3.001871
  H      -0.196868     -4.396164      1.066368
  H       1.301341      1.783926      3.491539
  Al      0.248608     -1.569534      4.306036
  H      -0.751885     -1.905448      5.488848
  H       1.850471     -1.417813      4.333047
  H       2.137872     -2.791381      1.656481
16
Coordinates from ORCA-job run E -975.927739955871
  Al     -0.076717      1.292734      2.819625
  Al      0.379130     -0.295962     -0.176083
  H      -0.184652     -1.762128      0.594014
  H      -0.887107      0.157639     -1.053387
  H       0.346601      0.677465      1.248365
  H      -1.472038      2.080615      2.637201
  H      -0.522472     -0.243831      3.487065
  H       1.906864     -0.470615     -0.645657
  Al      0.580628     -3.051872      1.462501
  H      -0.184731     -2.682166      2.999816
  H      -0.202928     -4.413293      1.069849
  H       1.314724      1.779012      3.480986
  Al      0.241130     -1.581876      4.296153
  H      -0.764015     -1.922001      5.487753
  H       1.837063     -1.375609      4.378153
  H       2.141780     -2.782913      1.627876
16
Coordinates from ORCA-job run E -975.928007328259
  Al     -0.068512      1.291660      2.813719
  Al      0.372065     -0.297907     -0.175029
  H      -0.185855     -1.764361      0.597084
  H      -0.893232      0.155344     -1.061477
  H       0.353213      0.676658      1.245373
  H      -1.458709      2.093027      2.645506
  H      -0.524194     -0.237573      3.483821
  H       1.900626     -0.468790     -0.643942
  Al      0.580275     -3.057517      1.461904
  H      -0.176326     -2.686685      3.003556
  H      -0.198416     -4.411693      1.078885
  H       1.322557      1.777353      3.477997
  Al      0.232194     -1.589985      4.292368
  H      -0.775465     -1.946581      5.491686
  H       1.822570     -1.351462      4.390232
  H       2.150469     -2.776288      1.612547
