88
-12.4395418833
Zr -0.25142173888391272651 1.81600330149868072205 1.87530169367775956246
Zr 0.89625934716899513521 -1.72350894645221908164 -1.58727625448156617338
Zr 2.32124050069885745629 -1.00255766104938981442 1.42732475095141908561
Zr -1.71451396331564143161 1.27960487287797919365 -1.09703859486399291079
Zr 1.65810895502403887747 1.53770625846423669714 -1.63726400469114130587
Zr -1.04829002247560820749 -1.50545168904679216304 1.73045533358550107650
O  -1.16965471022753142449 0.31708632226646338292 0.66937523498196815908
O  1.77443110837692974435 -0.15721893947439946615 -0.43003883369147299920
O  0.66108596147330955795 -1.91784787935952460991 0.54440697153634598493
O  0.06497473154414462604 2.06877197287924419200 -0.27866849650596570154
O  0.00581638687329291779 0.25560825746260595892 -1.90474302706765463711
O  0.52074514111863356991 -0.17364310762686824274 2.15685070213299789899
O  -1.66146571804071419010 1.38400272186024886345 3.20484613578073718188
O  -1.38558637575918730533 3.39631879508796741263 1.55403001822643771490
O  0.98988560849095907912 1.73075630951679482195 3.51838879522694947255
O  1.26296827688536317247 3.16310248905523172525 1.55554689562250136881
O  0.16078219515441394272 -3.58637399730106842810 -1.07848403632703582211
O  -0.90815788191219781744 -1.92716405136623469829 -2.53701070810478723772
O  2.66991975069857101488 -2.60266221586073998040 -1.44361717500248420976
O  1.52238797802626990574 -1.35015121276805727391 -3.42348252957240317684
O  1.98472395216864838652 -2.10750869697054898921 3.05089291368461390519
O  2.81677520270458003893 0.47314832401799561401 2.72692538601490186423
O  3.18357934798086317230 -2.69053237507293552255 0.82428679195285747827
O  4.00163274447402272926 -0.26330540206539720938 0.50430863381065549333
O  -3.41942904951419990311 0.71490532324060618308 -0.06643524611706271010
O  -2.35670389230937704639 3.06836724773497593333 -0.53794396564340984934
O  -2.44677188796348188404 -0.19526869947049840803 -2.21496920646616946016
O  -1.42163726854652305853 2.24041835958042057086 -2.81577893475074336749
O  0.75721966343727675763 3.03963616297783190134 -2.58574718965814742688
O  2.43259609700704082513 2.93476866148180359772 -0.45624037319170729354
O  1.96994343146134309741 0.93479388914915884090 -3.49988563237355787550
O  3.63000264018281626477 0.95315610837854347626 -1.47329835095159622504
O  -3.02200296938036272465 -1.07304746926473959512 1.40796917266663235146
O  -1.55026032823560377949 -0.91381960778761850417 3.56331759706497974705
O  -1.54113534616554948009 -3.01097304313042046786 0.44368253040974997559
O  -0.15963643520350609406 -2.97457020401342742133 2.72866597364982199636
C  -1.83894264978842136848 0.30536910170102110618 3.91218016431071458072
C  -2.13957938438688355376 3.73842575039678770565 0.55319715046717421458
C  2.22678917700861056517 1.33170671920940475452 3.50727943709773049008
C  2.16108102745750407792 3.48988756614018669211 0.68098128195384732830
C  -0.87979261322562329894 -3.81943823646118696402 -0.33454026168842843081
C  -2.03544575301823060798 -1.31487162801141588275 -2.71782106258371447538
C  3.30243164013596812723 -3.07891601166134520895 -0.41078741269251572987
C  1.89444434255889260221 -0.25508522122250820718 -4.01478936754725168612
C  1.02082669681571935882 -2.95389326092573156757 3.27525321558507975794
C  4.35598457753836587614 0.38413173815114343146 -0.56249543931364009985
C  -3.75989094606501828011 -0.23798282108193913320 0.74450229391646283172
C  -0.42942494254410551457 3.02620069827838733545 -3.12192424160547776779
H  -2.73822907930721859415 -1.81580703393054898598 -3.37623423673227840425
H  4.02032664887139201682 -3.87845636493032808190 -0.60264800156708786538
H  2.86684343460265989023 1.79807872284150915831 4.25304881471925444458
H  -2.64854437890183858073 4.69870507871388376486 0.63919684122900655154
H  2.17187273864957086644 -0.34461696245774198211 -5.06520859060432648846
H  -0.61296252698691910954 3.75235607432605622336 -3.91650838812526203014
H  2.77873813023715321435 4.34346578787538284416 0.94261779142351842520
H  5.42657117515157061405 0.45187169434760976472 -0.72424242767297319912
H  -1.26160093404134654449 -4.83751930646013583726 -0.37983268524462565630
H  -4.82764408967821090357 -0.34303926860208605598 0.90478040590950126187
H  -2.29104913648485863931 0.43542989517743646566 4.89744574990737469022
H  1.21962683442856190119 -3.73451625238722995093 4.01166434213108580309
Al 6.89039463497100523881 -1.61732356768852292284 1.45377898791871107420
Al 5.93211516126635096668 1.39052277502142773713 2.52800871743720190210
Al 5.00456017170723477250 -3.27534789539364012967 3.52192314431837516508
Al 4.99551424522471521072 -0.46040263094589789494 5.01946661846280850483
Al 3.95439846976047970628 -3.30870645890653047871 6.03470311631886424664
Al 2.11638263472907128815 -1.13077238041776229061 6.08968420572550428460
Al 3.38759086927740149520 0.79246484235995984236 7.53118245698610255801
H  8.48391220797491740768 -1.69243023619379751032 1.48742154041312746315
H  6.35359732009600453040 -1.96137150970960649765 -0.00970070340727572332
H  7.16352823636879509905 2.33612420959804456544 2.89508077069160707495
H  4.81627114332628281090 2.18423220336518797424 1.70713941647832556647
H  6.42077745284122158864 -0.06496017211967833327 1.86347471078047854931
H  6.24719176920283203458 -2.73559758221233195741 2.51579050537228132711
H  4.49029361332401766305 -4.46168636936767715184 2.55923943183915048039
H  5.39589437551056594344 -3.43239876394228504708 5.15442871903026489377
H  2.39096650478032790588 -2.76377694849905441998 6.30567107765607737235
H  4.77250159871938350875 -1.82503750070481118861 5.97750853691760486441
H  3.56881933655297167718 -3.29386225073220062498 4.39609886975433994394
H  4.07265658797810026215 -3.97701384635842369875 7.49728158549234269259
H  2.09014481940896645895 -0.25714119574893712361 7.50636882346111811160
H  4.21900707665843821559 -0.03995945460032938185 8.62108554992221698399
H  2.71695400098880757156 2.06802367954275112538 6.82667212421293712055
H  4.52335104714562685757 0.48322009688715661380 6.32919818329867389650
H  5.22636011768977315484 0.77837188748882413236 3.91214257086711958422
H  4.98606631869204797169 -1.59567125971643775095 3.77789482479859550779
H  6.58264448094613374707 -0.48678238055206601853 5.26490158666539720400
H  3.31588379362624241509 -0.56570339867771113340 5.04811536839358510065
H  0.73416164815746132177 -0.89950555167160595182 5.30215904546229399585
