32
Coordinates from ORCA-job run E -1951.205034031447
  Al         -0.23720725179891      2.44436012357399      0.61675787326393
  Al         -2.96994129575544      1.11788752178123      1.31319739141563
  Al         -0.17458035623042     -0.23790202813700      0.86282933292454
  Al          2.62273464291905      1.22465406031439      0.81278315465007
  Al          0.17259594701137     -0.60885939532744      4.12559451846584
  Al         -2.17178112295883      1.67483125780396      4.52542360800679
  Al          2.22770241850758      1.96593798740453      3.99212127683989
  Al          0.30130946948393      1.35994758240231      6.55056143078310
  H           0.63513456449782      1.43709197327109      8.08222562330917
  H           0.41611010843616     -0.13083113211488      5.86755378223730
  H           1.25265243962617      2.20580287576139      5.53988375300898
  H          -1.21029351831415      1.76494767517672      6.10904477674923
  H          -1.50213423268565      2.95907666985586      3.90538526234497
  H          -3.48880556275782      1.34626750523411      5.31480879717875
  H          -3.02500402987377      1.20181205445383      2.92470821292040
  H          -4.34267510177042      0.95091680048368      0.56978655413887
  H          -1.26375125481582      0.24688745769004      4.17045891455442
  H          -1.92423245476536     -0.12308080720249      1.06701945060067
  H          -0.05870853190605     -0.83373195954429      2.43638764112428
  H          -0.21466410783512     -1.48419006664519     -0.09555334854171
  H           1.58499820526398     -0.04992085979608      0.83901288804337
  H           3.01999311247639      1.39320595474311      2.37115480420849
  H           3.80627590223490      1.06103943839064     -0.20564401032069
  H           3.57026939951918      1.66917060096213      4.75292485443795
  H           0.35303337088956     -2.11542199511134      4.51855208292796
  H           1.36816854273562      0.49254229065334      3.75380498210528
  H          -0.29765778581080      3.97491872514456      0.30359337722383
  H          -2.05361377087121      2.37194204066615      0.80046420699147
  H           1.57313063551672      2.42970256045836      0.46159293462990
  H          -0.30257686875357      1.11285262702492     -0.39055278672254
  H           1.56011537613999      3.22365908181647      3.31938591184635
  H          -0.12287688835512      1.40048337881150      1.88911274865240
