72
Coordinates from ORCA-job run E -3732.512473154983
  Zr         -0.32511956340998      1.85235560523328      1.81950568478476
  Zr          0.28588853105899     -1.97860134736671     -1.50966363799425
  Zr          1.70731424585665     -1.27609747816005      1.58306505330280
  Zr         -1.74630085574211      1.16558312821922     -1.27514857835675
  Zr          1.72929813987819      1.17494753592136     -1.26559927178266
  Zr         -1.77294263491528     -1.30169232155511      1.55734932346738
  O          -1.81644832113586      0.60131582450083      0.71807080992982
  O           1.77210298934199     -0.72109530677718     -0.42003225640234
  O          -0.11505077063622     -2.01714725928920      0.52573472676543
  O           0.07776133113259      1.89920569852178     -0.22346899930497
  O          -0.09481091474451      0.04111851571294     -1.86384483215306
  O           0.04333105270198     -0.16426966082511      2.16382259155174
  O          -1.80107482874591      1.71354372820588      3.48447724047787
  O          -1.74846720404044      3.52212873927472      1.43966223999600
  O           1.13694977615104      1.80503280081216      3.54322032295523
  O           1.19819811966598      3.48378976190781      1.56288761259056
  O          -1.19249737977562     -3.66340932433545     -1.23946985439595
  O          -1.23008503744112     -1.94626760875039     -3.17778479615520
  O           1.72725305734187     -3.63659862022377     -1.11261816393638
  O           1.73606019339196     -1.84194209026633     -3.18807169062920
  O           1.09096060281759     -2.74724713906121      3.14493608311360
  O           2.36564581776982     -0.10788121367269      3.39763626392209
  O           2.63102825904697     -3.19028103618805      0.91797559319962
  O           3.78070035976812     -0.46886003688579      1.25814676940905
  O          -3.84899346817139      0.42159007209759     -0.94078113472064
  O          -2.64527013152804      3.10037073839874     -0.60182212685291
  O          -2.43632237806075     -0.01966367341094     -3.06718427237209
  O          -1.13098786180472      2.60944939628245     -2.88043205674216
  O           1.13670295085679      2.55496882078632     -2.90058329599223
  O           2.46048825123177      3.04827011131095     -0.27374497911852
  O           2.60043686557217      0.25162781236566     -3.10966729883919
  O           3.86804696261619      0.87129410803769     -0.58142807730756
  O          -3.89210568141569     -1.00957165668580      0.83076699098410
  O          -2.65014866910738     -0.38672523290977      3.39376052807610
  O          -2.48774896888404     -3.18951975745783      0.57038547563762
  O          -1.17533697570050     -2.70467565668739      3.17730250404705
  C          -2.52983732755608      0.76606827470200      3.90928909374165
  C          -2.49473366075951      3.79247503245923      0.45071359470791
  C           1.93905975567445      0.92909595998323      3.99223155333229
  C           2.00102756364708      3.80618658513916      0.63661665948418
  C          -2.03284058723106     -3.95535434113867     -0.33685306560175
  C          -2.02300835087000     -1.07071512225346     -3.64444054724696
  C           2.49635961178864     -3.88576278073741     -0.13554952181689
  C           2.46818586519255     -0.89982648387385     -3.62207672882977
  C          -0.04260692916057     -3.10429312288884      3.58750633224511
  C           4.38239020174555      0.14360958996506      0.31915019221859
  C          -4.42870520807372     -0.24458899993548     -0.02674840136697
  C           0.00782532967049      2.95835502217155     -3.31482633284583
  H          -2.42076820361698     -1.25992799870315     -4.68427659255769
  H           3.12416809874983     -4.81967601785309     -0.20851375866893
  H           2.33295054617074      1.10251888353399      5.03647580520857
  H          -3.09064707465200      4.74887258545012      0.51650848836178
  H           3.06097733935441     -1.11044993243939     -4.55818173407352
  H           0.02124926676643      3.70437261463267     -4.16213234390350
  H           2.37273792288356      4.87275498396370      0.63612297898071
  H           5.50685885112473      0.03992663083281      0.29858954030922
  H          -2.44005671453105     -5.00848384387654     -0.35046803253895
  H          -5.55410359853361     -0.15867190130901      0.01413428323133
  H          -3.13353239343166      0.97034247310934      4.83986907498509
  H          -0.04497199491100     -3.85366802834030      4.43030170007478
  Al          2.06607123251123      7.28496523732204     -2.32085509748311
  Al          0.37489428644881      7.98134894461263      0.38845848389766
  H          -0.94151552358523      7.73722711563229     -0.74764415867003
  H           0.22764432578052      6.92653919867187      1.59508775308106
  H           1.61456495673248      7.32451059554398     -0.64164963937812
  H           2.81706250394860      5.87614389279253     -2.52360556570086
  H           0.42694586674943      7.13842928282573     -2.94506565356240
  H           0.56652835953056      9.58010058950339      0.45036733916900
  Al         -0.87367954492820      6.48447919715193     -1.96845124555392
  H          -2.20961400437158      6.67480422072300     -2.84500210132027
  H          -0.27067575514418      5.18536384619359     -1.23861727096321
  H           2.53866161813014      8.76451244216549     -2.74997627037157
