80
Coordinates from ORCA-job run E -4220.490855844113
  Zr          0.08795283692165      1.90766243765119      1.65508431925532
  Zr          0.09420077383565     -2.08821272140859     -1.56341977621754
  Zr          1.88876396855696     -1.37646055739592      1.31611918352770
  Zr         -1.70542624326147      1.17565442293902     -1.23731697030575
  Zr          1.75259805854589      0.97511956221460     -1.57511389029633
  Zr         -1.54417350536576     -1.15062141004923      1.70291243380661
  O          -1.57022857468826      0.71751506497051      0.80433504451084
  O           1.76531177000404     -0.92113773555417     -0.70441879780133
  O          -0.08091090121678     -2.02444654586998      0.51185843596569
  O           0.26360245091187      1.83603152767350     -0.40887251751709
  O          -0.20081420677942     -0.06049075956349     -1.93604526869171
  O           0.41337208837623     -0.12177286930038      2.04940213594315
  O          -1.07746524771029      1.88395265228848      3.55093396628415
  O          -1.35272261244775      3.58645369549961      1.41162293471699
  O           1.87877064055170      1.88334662907883      3.01256467272905
  O           1.50681897642354      3.59882085912998      1.09185722343901
  O          -1.39536228760235     -3.70836780510394     -1.02739914077528
  O          -1.62894969810276     -2.01903519177245     -3.00058376064970
  O           1.49417245305759     -3.80910356639154     -1.30486654061096
  O           1.30948691303949     -2.06689237122875     -3.43003851453877
  O           1.42625877392444     -2.68469464961275      3.06304459922160
  O           2.96731268813382     -0.10626537773525      2.82716297428274
  O           2.50188161206324     -3.42328444069586      0.69068220788057
  O           4.02610579173468     -0.97293978901824      0.64142475146450
  O          -3.77650721543355      0.55122905532631     -0.61459238570936
  O          -2.40699088802860      3.17672246930720     -0.55064609882178
  O          -2.67174253083553     -0.00060163462472     -2.89547100134261
  O          -1.18346811245725      2.52574808811982     -2.92548819440592
  O           1.06705806475859      2.39024463194895     -3.15801108507431
  O           2.67767287459696      2.81866602439947     -0.69856710075380
  O           2.32383464636193     -0.04200714269187     -3.47193614942592
  O           3.90212773096433      0.55668001447201     -1.04177954259719
  O          -3.72163172340502     -0.71728416216959      1.27533245291262
  O          -2.07540463253543     -0.14745033428784      3.63343810282692
  O          -2.51333197123979     -2.96413155545593      0.80858632093898
  O          -0.83407618429926     -2.61010820136355      3.24542017571515
  C          -1.77858237741144      0.98754900455426      4.11425333413975
  C          -2.18131525107606      3.86356021244366      0.49198774254401
  C           2.72227477819676      1.01222140189307      3.37995742628469
  C           2.31670941615418      3.72010092262191      0.12659255309706
  C          -2.19253991975926     -3.84454639502259     -0.05347110168330
  C          -2.40154939186908     -1.11109752898019     -3.44374114867126
  C           2.26503841851666     -4.11576610249006     -0.34620959342591
  C           2.05752979288264     -1.18574414272181     -3.95300570892936
  C           0.31311705614945     -3.03175832585841      3.57410936084792
  C           4.50140251192134     -0.30773868774231     -0.32929140919991
  C          -4.29773834698447      0.00894019013289      0.41175526709941
  C          -0.08015354159252      2.83217839538706     -3.47308049884572
  H          -2.91848321415814     -1.32765218941966     -4.42347008620963
  H           2.81125950041130     -5.09910968511974     -0.42595382382190
  H           3.35338860578200      1.26979642733983      4.27925893461276
  H          -2.77422552204086      4.81478622070559      0.61388638667734
  H           2.53180536484464     -1.44299031181088     -4.94298073506488
  H          -0.12374247834942      3.56981953832523     -4.32449483802140
  H           2.78782632421157      4.73708647200225     -0.01133666261446
  H           5.58861546466960     -0.49229364898724     -0.57309665078054
  H          -2.69023147119231     -4.85214596424499      0.05529731633541
  H          -5.40380383923574      0.18195127553606      0.55922230889994
  H          -2.17997775020943      1.22757134678557      5.13992789669524
  H           0.36066972504799     -3.79235816472825      4.40493638220754
  Al          6.36126062917380     -1.08333175248547      3.92947696637884
  Al          6.17544643017315     -3.71688879270216      1.95350778427888
  H           4.66656460016997     -4.22827372722174      2.65797093934176
  H           6.00438778900307     -3.65752976537864      0.34619725483104
  H           6.04871277534943     -2.09470980962556      2.55217387125984
  H           6.15772216806204      0.44377275457606      3.45106078026545
  H           4.94799414553079     -1.56379454412863      4.80319086373236
  H           7.37485735231224     -4.44695035707376      2.74778422850020
  Al          3.99954575759077     -5.08642965695547      4.01540432035214
  H           3.79902302157695     -3.63802667517445      4.93900729754851
  H           2.53987589928035     -5.63629295665424      3.60011624743009
  H           7.63221105262747     -1.68702718162233      4.72117439846054
  Al          3.90235946158168     -2.26778630629394      6.01325061663007
  H           3.29983169486109     -0.55693064865732      6.18117041942528
  H           4.71723751568150     -2.65019099887572      7.34153328823602
  H           5.17759146244968     -5.94845821631068      4.70439325682895
  Al          1.63270429638819     -0.94381782765895      6.56003117200748
  H           1.43732308216570     -0.75188448086274      8.14768258877073
  H           2.12820864447842     -2.60732638664754      6.30368637618618
  H           0.74659445083363     -0.46268661362687      5.30208473758145
