80
Coordinates from ORCA-job run E -4220.488110493644
  Zr         -0.26069763196384      1.95179361038589      1.59066184021222
  Zr          0.32713492281131     -1.83552674114229     -1.79196258340088
  Zr          1.82824354085716     -1.16340808320301      1.27371163760338
  Zr         -1.69092968155999      1.28867132052047     -1.50671160174338
  Zr          1.79046002825926      1.31954636643841     -1.49747475685526
  Zr         -1.64264459744673     -1.21598586013256      1.33836615371619
  O          -1.74757601221660      0.68573362131170      0.49841896878087
  O           1.84883224944403     -0.60492169319511     -0.71612170043216
  O           0.00415578211463     -1.90381979137721      0.27438166133632
  O           0.12085762938639      2.01735033394903     -0.45546597133304
  O          -0.03774215251751      0.18383726354005     -2.09801804552680
  O           0.17107327805857     -0.05137187387253      1.91478555311749
  O          -1.69783205891715      1.78523835726156      3.28948072756787
  O          -1.74403014270494      3.58938671488879      1.22674730233891
  O           1.23115128386368      1.96246988297003      3.29142315324097
  O           1.21381314778664      3.63255184198694      1.30629469809505
  O          -1.18467147640967     -3.47391989193052     -1.46970732363314
  O          -1.21762630094224     -1.75486691102480     -3.41779100096754
  O           1.78795669463246     -3.48555271090440     -1.44505309995936
  O           1.75101516641483     -1.66090697021981     -3.49750926386693
  O           1.29903382411064     -2.46114055431709      3.00845409503694
  O           2.64091122091132      0.24540698339545      2.81302485496756
  O           2.58359675461265     -3.18025745291176      0.66145075726594
  O           4.00859578743712     -0.68375783211899      0.79181527092285
  O          -3.72384920803161      0.38128478507898     -1.24915124824834
  O          -2.66384992931144      3.15682764031832     -0.79883763509029
  O          -2.30612064515298      0.24744774806416     -3.43853596714698
  O          -1.07782596903229      2.81334770423939     -3.02046486835624
  O           1.18311348958389      2.67553068825507     -3.15315429956874
  O           2.43668741753644      3.28448193076985     -0.58316381769130
  O           2.70501215711498      0.39111181780060     -3.31102667095803
  O           3.84493672031043      1.09376569031041     -0.62458718520414
  O          -3.71943037771640     -1.08946018985765      0.48245519047472
  O          -2.60259880614846     -0.28757949225018      3.12589606519201
  O          -2.24677977698833     -3.23890503609868      0.53009519069096
  O          -0.96831390891453     -2.48492224118190      3.06709739096985
  C          -2.47129666508915      0.85316042134780      3.66665125918337
  C          -2.52320628495511      3.84338559076480      0.26010056253875
  C           2.17512779272008      1.16599159147704      3.56121006368610
  C           2.00428859465442      3.98994831818218      0.37774553303741
  C          -1.88248972631446     -3.89422909893445     -0.49407226693340
  C          -1.93042819544548     -0.84651412767904     -3.95429900749650
  C           2.47211800217892     -3.81732876719929     -0.42935771989461
  C           2.54076422206551     -0.73838565217335     -3.86618013519797
  C           0.18085333664155     -2.76387021075870      3.52586465509466
  C           4.48194416732371      0.18384420083325      0.00218867049909
  C          -4.28635091565202     -0.33281121807089     -0.36194779842141
  C           0.05043362542334      3.13147174666457     -3.50222537443595
  H          -2.28088445607007     -1.04992954219052     -5.00862522760013
  H           3.04736091463557     -4.78718544918896     -0.50586012740046
  H           2.67500994378508      1.29480293790078      4.56517384642148
  H          -3.15737276602086      4.77178591935521      0.34825055431561
  H           3.16179003411477     -0.94409021208216     -4.78495073012575
  H           0.04999485827304      3.89946357443964     -4.32828369020416
  H           2.37824272833641      5.05451762528692      0.42458024758254
  H           5.60000166724050      0.16293754830783     -0.15691218109753
  H          -2.23020731197961     -4.96689146584543     -0.55302678069585
  H          -5.41460018258416     -0.30783399993398     -0.33849200093788
  H          -3.10674605761297      1.05863049895793      4.57529439349444
  H           0.21379693160340     -3.34718489860656      4.49087716008271
  Al         -1.80388517712273     -8.62063196837209      0.95901999746062
  Al          0.95491324647202     -7.38300963246679      0.17328088730273
  H           1.62249399247301     -6.81582082240740      1.69458159967610
  H           2.19027416915086     -8.13546195909742     -0.53936686814411
  H          -0.05023694930624     -8.60114262649123      0.88488985919721
  H          -2.11115884555926     -9.89157832336108      1.90444885948883
  H          -2.03179908656210     -7.17350082518827      1.83661380446227
  H           0.04224741312560     -6.17872734217708     -0.37212639365703
  Al          0.97900971157358     -6.52470308411556      3.26867534447812
  H          -0.40113917342355     -5.60284330590718      2.72090175458225
  H           0.32845962824017     -7.91221264988785      3.79133317883560
  H          -2.34837886651743     -8.36999762579287     -0.54296514790992
  Al         -2.00133729146725     -6.08995559112004      3.26460837570262
  H          -2.45106496651900     -7.51857938888181      4.22295202844654
  H          -3.21203855792933     -5.09338183109507      2.94934285432593
  H           1.99660465806884     -5.55469909898136      4.04431561515328
  Al         -2.07852833349357     -6.86638961273778      5.82757424777239
  H          -3.48502827482737     -6.38848523056510      6.45679835426529
  H          -1.40116897150739     -5.52485040599821      4.95437115042118
  H          -0.92066682172808     -7.75963130668371      6.50219579118673
