76
Coordinates from ORCA-job run E -3976.497721197859
  Zr         -0.29681650430998      2.05161999090143      1.64382613224020
  Zr          0.38219600171459     -2.04253278260247     -1.37375200835077
  Zr          1.72883550609037     -1.10068970287219      1.70385660262908
  Zr         -1.68464900324428      1.09319306158402     -1.44547214430174
  Zr          1.76402574902429      1.14075503169268     -1.29859740074968
  Zr         -1.75224828805750     -1.09574191232321      1.57498349190013
  O          -1.78812088133248      0.71847716590518      0.60316754092825
  O           1.86105151623009     -0.69890748449627     -0.32166972824534
  O          -0.09332180389220     -1.93878355236340      0.63708090136932
  O           0.10785123267462      1.96382745678920     -0.39582314283509
  O          -0.01332881855438     -0.06346692564215     -1.82931161688960
  O           0.07851465633401      0.06916084568989      2.10280572030070
  O          -1.79956980624266      2.03197406468871      3.28768851226399
  O          -1.70317947134378      3.67910644905248      1.07172623055381
  O           1.07387139982085      2.09250856080812      3.44554498972163
  O           1.34094394480882      3.53270434041787      1.29315809787752
  O          -1.15825787768980     -3.65424661116765     -1.07819139634585
  O          -0.98045710284556     -2.10026173478825     -3.17242395345137
  O           1.81957509910196     -3.64963923477376     -0.83199546734954
  O           1.92771946767647     -1.97462144275153     -3.00904681211079
  O           1.04821765443801     -2.45141057289468      3.35665081595829
  O           2.31704154817415      0.17557635110910      3.47231634281914
  O           2.63573119571346     -3.08034152595310      1.21074866483414
  O           3.83204262496015     -0.36440956025100      1.41018475267516
  O          -3.68983482428270      0.20706719568519     -1.12395843686549
  O          -2.61590602792981      3.05120851254044     -0.91512481349872
  O          -2.21401057008846     -0.17850448096834     -3.24517541616648
  O          -1.03331936615214      2.43451011047391     -3.10135372882942
  O           1.23583606784566      2.37891310417915     -3.09302075737683
  O           2.42200758309642      3.25084148976060     -0.69243412671332
  O           2.77815604782579      0.12880993129442     -2.98649621905534
  O           3.80311588154387      1.08014354485048     -0.34591454448978
  O          -3.92702587177700     -0.82955562946250      0.89136717019755
  O          -2.66564987475527     -0.06744804658758      3.33890298092071
  O          -2.51046475399828     -2.99195834109107      0.62808777415591
  O          -1.22196555255161     -2.40146054218230      3.30261358476406
  C          -2.55372058656676      1.12480794821734      3.75652743475990
  C          -2.46324991446823      3.83924865709689      0.06723289783494
  C           1.85233544295234      1.24475269394584      3.98067518208016
  C           2.04230244079259      3.93011979163105      0.30548050271614
  C          -2.04215243716477     -3.84493490276490     -0.18883844253857
  C          -1.74667054815350     -1.25284758322126     -3.73233083432076
  C           2.54329842155379     -3.83329142631273      0.19485091927981
  C           2.71374259532729     -1.06871456088253     -3.41166538770026
  C          -0.10377753273719     -2.79040402608216      3.76254302948998
  C           4.37949406991808      0.31905161767993      0.49358549783948
  C          -4.36541847701591     -0.24214913608999     -0.13631495815095
  C           0.11182561083167      2.76171193587745     -3.53896644168204
  H          -2.06180329141333     -1.49685582360004     -4.78904808443037
  H           3.17198160858444     -4.76989314589430      0.20340560579066
  H           2.18762186399927      1.47562818604476      5.03418387448717
  H          -3.07185186539837      4.78908229661823      0.04783377430252
  H           3.42980523680036     -1.34851097346920     -4.23645798289294
  H           0.12988052645573      3.46484132256513     -4.42031204242131
  H           2.37538782409809      5.00855271373000      0.33695396616226
  H           5.50488101953542      0.26225675653669      0.43064612754142
  H          -2.47865080192069     -4.88454879553664     -0.13171914924780
  H          -5.48474642439529     -0.11083807780720     -0.20598221727847
  H          -3.19116826033695      1.41094465399817      4.64194832634778
  H          -0.14045969179804     -3.51408393677755      4.62710448893947
  Al          5.91537879274177      4.01977404076376     -1.22646978745662
  Al          3.61506668821816      5.24822209836731     -3.46011313061034
  H           3.74359209000279      3.87713183318975     -4.50853562199575
  H           2.11055469085150      5.40813416484737     -2.91277733181926
  H           4.67751325128739      4.70853153061857     -2.21330487297388
  H           5.35168473579283      3.68850836707671      0.24195335384886
  H           6.16008845344581      2.56189201473903     -2.12622927479314
  H           4.43425311330212      6.41816987809417     -4.21305756756892
  Al          4.12469210980355      2.51133197551290     -5.49724726219978
  H           5.19135006402395      1.73329911735190     -4.37908875656134
  H           2.83084846009461      1.58756742332889     -5.74015627619398
  H           7.23292245159351      4.90031083861089     -1.53224302536598
  Al          6.34710895460261      1.22807916522604     -3.20493841177465
  H           5.84531790705579     -0.12837294055385     -2.49841867854049
  H           7.79918297962995      1.42858455821488     -3.87807263221506
  H           5.07447141440567      3.09245946345903     -6.66521017046636
