64
Coordinates from ORCA-job run E -3244.553804979724
  Zr         -0.24822705477346      1.97672788348431      1.59826413658785
  Zr          0.16363568748365     -2.13912360665840     -1.40500851076236
  Zr          1.68623105914740     -1.24346296563773      1.61549583151553
  Zr         -1.66301580427335      1.15395137691792     -1.43981186613508
  Zr          1.78804464413079      0.92876404084267     -1.41755707722996
  Zr         -1.81675069858065     -1.10023058073866      1.58977785104161
  O          -1.75994691573496      0.73171824352147      0.60681476967430
  O           1.81921619150653     -0.86421094202833     -0.40276179976561
  O          -0.19222807835815     -1.96659182677609      0.61338780444328
  O           0.18377502607844      1.87708634218618     -0.44234614070536
  O          -0.07444752433813     -0.11744356737804     -1.87773695925977
  O           0.06616946335518     -0.02265757779417      2.14338072343328
  O          -1.71701683200731      2.06226891211771      3.28236408236693
  O          -1.59483622770110      3.68015604413057      1.08062858749365
  O           1.15106035036049      2.10343051849161      3.38985366802597
  O           1.35417882387701      3.56854129665579      1.23591374450769
  O          -1.30266316710403     -3.81269719565958     -0.96686283259301
  O          -1.48933411057160     -2.08275925125717     -2.91129948524753
  O           1.54971567660060     -3.80315324798250     -1.02484861035621
  O           1.48254784443034     -2.15017290380077     -3.20334442858903
  O           0.91765073219307     -2.45884941709173      3.32550425053520
  O           2.59536544664073      0.57255361181423      2.57171866736242
  O           2.35676020412179     -3.32686622345698      1.03762621865240
  O           4.24949274651498     -0.62340494265019      0.83418640883528
  O          -3.72149007375099      0.33803954228728     -1.09830138337356
  O          -2.55469617017080      3.12140833275674     -0.89494858056733
  O          -2.32347273364858      0.00172876773295     -3.27388503726713
  O          -0.95170362136911      2.51795379125499     -3.05902761565737
  O           1.31143210714056      2.38041855553729     -3.04747720049229
  O           2.72321205657050      2.60273232325349     -0.29684166473890
  O           2.45643087354078     -0.10404433669587     -3.28398606502612
  O           4.06552069103435      0.49262127769297     -1.12359634992452
  O          -3.94890214687007     -0.73654710611546      0.89465168684299
  O          -2.64021615880319     -0.00958329577712      3.35114259390396
  O          -2.63652022080914     -2.96953146929279      0.67078363670728
  O          -1.35082004529464     -2.44036142235538      3.29730753590663
  C          -2.47867847465655      1.17554032467538      3.77490143754420
  C          -2.37469038453362      3.88631637240261      0.10263502730623
  C           2.20196169069239      1.41111981527051      3.45541243416810
  C           2.29214947749601      3.58669798052125      0.39177129425474
  C          -2.20426449665663     -3.89943101917111     -0.08292616571065
  C          -2.07544953342809     -1.19163015652512     -3.60875534487658
  C           2.24272952574170     -4.05368576037796      0.00963797031289
  C           2.20960914096282     -1.25930469487248     -3.74167997296444
  C          -0.22243358841728     -2.78971838016135      3.76692664642343
  C           4.72441982542255     -0.10781616776879     -0.24663627228394
  C          -4.39065344983581     -0.10273639629538     -0.10587860530132
  C           0.20465661860272      2.84216067412286     -3.46552549715964
  H          -2.42887360466346     -1.51193772087389     -4.63357659622381
  H           2.81622279298543     -5.02518628350374      0.00960147722682
  H           2.86127552793310      1.54264584858190      4.36391973089042
  H          -2.96864291337015      4.84467550428888      0.11889840063213
  H           2.68627958364349     -1.52442333018074     -4.72911361166632
  H           0.25510233155241      3.61752094670536     -4.28286476130774
  H           2.82493567878000      4.57132135790852      0.24467338564489
  H           5.83636228698267     -0.20999594348690     -0.40728509286857
  H          -2.69426199668755     -4.90999276735809      0.03944407209117
  H          -5.50399522677084      0.07556484077104     -0.13922606295792
  H          -3.07674830275402      1.47110008768953      4.68431534253187
  H          -0.24064451146015     -3.46380878788928      4.67082804613687
  Al          4.92856259764014     -1.48625764649395      2.40350148503263
  H           5.61709112625782     -0.41091236201276      3.41581952037178
  H           3.36496667093547     -1.88551594759496      2.86710185286631
  H           5.75595791468664     -2.79467470019983      1.90626698592266
