76
Coordinates from ORCA-job run E -3976.499541762180
  Zr         -0.17824309074113      2.07846000802875      1.29290078756201
  Zr          0.04730300039753     -2.23045347471818     -1.46015396801186
  Zr          1.78102465920224     -1.14110505380776      1.35947411002264
  Zr         -1.83161211810901      0.99106260808751     -1.54687131403934
  Zr          1.63355076415414      0.85648163060363     -1.77710063211470
  Zr         -1.68164048624771     -1.03223015508290      1.64294153292014
  O          -1.77463713342362      0.72664142204669      0.52601380670320
  O           1.67596915983830     -0.90444327649656     -0.69579551423486
  O          -0.14611223430492     -1.95054643255336      0.59168353896650
  O           0.07155817835446      1.81065839196303     -0.74243174258751
  O          -0.26816593180454     -0.25818850131046     -2.06674578018893
  O           0.21113290781479      0.12756414947143      1.90426872596120
  O          -1.46985954846249      2.21301775743632      3.10417967983361
  O          -1.65661512824134      3.68155204944290      0.79195032566545
  O           1.51042200444986      2.26661623672752      2.76389807764961
  O           1.25516540571870      3.75513748150581      0.63410852837674
  O          -1.42710602600397     -3.80148731115660     -0.78816039852632
  O          -1.64899693628197     -2.31803865325184     -2.91909871871524
  O           1.47790048326194     -3.86281209113673     -0.97279214625958
  O           1.32390200946655     -2.37737232863028     -3.27975674681435
  O           1.30356920343610     -2.27935087288330      3.21407589559506
  O           2.68177456937231      0.31643360590911      2.82691642487118
  O           2.51900201075952     -3.20187703896587      0.93271869456460
  O           3.87448957726135     -0.61178964568512      0.71180670618455
  O          -3.84855470412672      0.16891184513976     -1.00842444559767
  O          -2.74045731973804      2.97256865040006     -1.07116226344324
  O          -2.62580415871446     -0.28626129643712     -3.25484469368254
  O          -1.27927764109408      2.26922810698582     -3.29871351704943
  O           0.97519121459978      2.10177745126901     -3.49515513417680
  O           2.50977890220608      2.74900529212875     -0.97592896791745
  O           2.26989999839420     -0.33481461193328     -3.54904061998198
  O           3.81289617862262      0.52462204736524     -1.26438381013583
  O          -3.83850853023328     -0.86077109470902      1.01806991299082
  O          -2.41820515498457      0.17312311378819      3.36480307044766
  O          -2.47186632503872     -3.07428504862887      1.10234303342270
  O          -0.95059527238150     -2.14744752069622      3.42957670198430
  C          -2.20844774949597      1.37601057935328      3.70459905566079
  C          -2.51205602040469      3.79949697323681     -0.13789950246708
  C           2.33642469976384      1.44840332554028      3.27960767251275
  C           2.09802774671190      3.75193499723857     -0.31131076772729
  C          -2.14766466518977     -3.95431412425584      0.24544774017912
  C          -2.34959791989052     -1.47894642255464     -3.57615425313112
  C           2.28862309256687     -4.01938076950966     -0.00897024648775
  C           2.04009276369819     -1.53115586221568     -3.89536269660101
  C           0.20530305019918     -2.50580851781939      3.80789283546589
  C           4.39347017413953     -0.12049157191139     -0.34040885288258
  C          -4.40302708921121     -0.28009369867006      0.04482589871342
  C          -0.16798612927934      2.53094088658696     -3.84792964112688
  H          -2.78572597802698     -1.85222443535973     -4.54920967287807
  H           2.86465299721570     -4.98902556502912      0.01132397147051
  H           2.83218551029434      1.77782732027945      4.23954511905833
  H          -3.13980664252229      4.73773872687556     -0.13250244162111
  H           2.52490034119717     -1.88106155669521     -4.85171227456483
  H          -0.19366611449092      3.21551142112337     -4.74450759100807
  H           2.55477665871267      4.74424442463234     -0.59157342208276
  H           5.50796337433608     -0.26355527118800     -0.45715893268835
  H          -2.56785429663143     -4.98804676210138      0.41121132244742
  H          -5.52510783872499     -0.16744843369241      0.10747460446383
  H          -2.73223590832167      1.73881613697391      4.63514042125221
  H           0.26389088457202     -3.08561596119468      4.77381885797488
  Al          3.15609866527201      8.05742539825023     -0.41042821408589
  Al          3.58940919238669      6.21055973460349      2.48706267309985
  H           1.91085649269621      6.05629501661280      2.79666103340925
  H           4.17748819605101      4.78233458806897      2.02871899486867
  H           3.38303321360009      7.13847718897337      1.03344455497846
  H           3.95413361566958      7.28064947602308     -1.57778603203255
  H           1.49019462055315      7.63386760819707     -0.60185795923387
  H           4.19119913886530      7.21827242816171      3.59192409451944
  Al          0.22640381158035      6.44183334802234      2.85435735920337
  H          -0.04983123224453      6.61217889396400      1.15126386499037
  H          -0.52864191263287      5.13330279229584      3.39052759786713
  H           3.21285302592983      9.61385978817835     -0.00586452207290
  Al         -0.12720891896361      7.01535219649691     -0.52062219137676
  H          -0.14171579135522      5.67765381816940     -1.41989995087457
  H          -1.12413946899829      8.27859916080707     -0.65748411464339
  H           0.15025136774741      7.94951232413845      3.43005808373535
