68
Coordinates from ORCA-job run E -3488.530873419782
  Zr         -0.20020202499076      2.04992019535315      1.44735429143667
  Zr          0.26411989972763     -2.15780068249181     -1.43566271195666
  Zr          1.77438419538833     -1.12875921020429      1.52770967582538
  Zr         -1.69640411362122      1.01910037237481     -1.51186516502267
  Zr          1.76978351078764      0.97197931563283     -1.57356926143702
  Zr         -1.70537931059095     -1.08424213019014      1.57454995158325
  O          -1.75359521150891      0.72213886346350      0.55041990736104
  O           1.80863620366360     -0.82813179931120     -0.54288785784786
  O          -0.07188270376368     -1.94955449489223      0.59984669117815
  O           0.13654913792648      1.83950106775414     -0.59183793213515
  O          -0.07835472289973     -0.17632278450041     -2.00502733878114
  O           0.14355832539503      0.06759940782327      2.00920204255207
  O          -1.52064492140035      2.10572178751990      3.23357642977427
  O          -1.70426434147673      3.62385472522528      0.94110563166055
  O           1.51557021159844      2.12230476917314      2.88675297891789
  O           1.16266243849879      3.78544123953182      0.90280978021939
  O          -1.07867356222005     -3.90955810427188     -0.89054798380968
  O          -1.47447581807990     -2.23606211823109     -2.86502859287422
  O           1.78238468959493     -3.71509125170856     -0.92737728236311
  O           1.56795193516463     -2.21376465924034     -3.23476186958886
  O           1.14919955824595     -2.46583486856844      3.20529266136799
  O           2.45546262441316      0.09659695195122      3.31612061190882
  O           2.72431781919223     -3.07708746124953      1.03356748026775
  O           3.76657841607177     -0.19936627304017      1.07944550046028
  O          -3.68986546948829      0.02491219408062     -1.10023330898376
  O          -2.64873054253258      2.97024128891737     -1.01042943385466
  O          -2.36022333008140     -0.18938952890914     -3.32311799983377
  O          -1.10584420877360      2.40510662033260     -3.17346769404446
  O           1.15463622968184      2.26921131650531     -3.28297180149795
  O           2.55126208298197      2.85764207477495     -0.64225927688364
  O           2.50173408603948     -0.15150337556708     -3.35648169939682
  O           3.95007344647589      0.68169060079667     -1.00858031358543
  O          -3.88931137680372     -0.80172262706229      1.00880685508168
  O          -2.45207182092329      0.04204370319257      3.35046336608809
  O          -2.48468593394978     -2.97016593310228      0.63181775203966
  O          -1.11459813447698     -2.37650341582309      3.28347431839255
  C          -2.25046185281102      1.21768089133551      3.77641929652451
  C          -2.51692308612685      3.75753507530935     -0.02042763406482
  C           2.15304555554967      1.28778088330328      3.61135087418779
  C           2.07559441654209      3.83224180589476      0.02951007584088
  C          -1.99899632991191     -3.95026758641805     -0.02464991050120
  C          -2.12566329230065     -1.40604938871624     -3.58091694687611
  C           2.59486480737345     -3.85187555414125      0.03429344753935
  C           2.28784281577777     -1.32361150293271     -3.78711046738385
  C           0.02047460714961     -2.78759775226086      3.68115728818712
  C           4.41707814894682      0.15196339538467      0.03976432124039
  C          -4.35410482750963     -0.32919080864401     -0.06556031479502
  C           0.02505267864318      2.70434401377403     -3.66555176186777
  H          -2.55653013849014     -1.80303399251042     -4.54607023718070
  H           3.27268913592576     -4.75274682342488      0.00383572922073
  H           2.49676957396204      1.66230326512034      4.61966701455041
  H          -3.19029715652120      4.66167555385855     -0.00413246858645
  H           2.78746028985849     -1.60828431752869     -4.75713151972111
  H           0.02425497865152      3.43017885306112     -4.52825543512846
  H           2.53359632246266      4.84533162001719     -0.16845533665451
  H           5.53350124611224     -0.01489039902203      0.06840105173317
  H          -2.45374232202710     -4.96324383577436      0.18145499117325
  H          -5.47513818745924     -0.21812085467077     -0.13373053685353
  H          -2.77087899156174      1.50840523396008      4.73369681126279
  H           0.02031081864563     -3.51160067071752      4.54586076413263
  Al         -4.34495334269494      3.47817352741936     -4.02604102012388
  Al         -5.58237154066857      1.16342857190683     -3.63527622498799
  H          -4.05272464008991      1.92382866752336     -3.26707582685709
  H          -6.55147252200179      1.11705566803198     -2.34495239887642
  H          -5.89608607236068      2.70698125432439     -4.47668309910613
  H          -3.45481991915695      3.64157148368445     -5.36127314872298
  H          -4.66174640378103      4.63995188366220     -2.95305536827125
  H          -5.41817289287249      0.00065384797213     -4.74201470023682
