12
Coordinates from ORCA-job run E -731.984702657597
  Al         -0.25672566725840      1.52122378731498      2.57136490946618
  Al         -0.00029688334875      0.00174732738335     -0.09294877554597
  H           0.79432573397273     -1.07189977011046      0.99987612486670
  H          -1.18335087036643     -0.82353614080695     -0.77756244685937
  H          -0.80519338595652      1.05571409676856      1.00931620937046
  H          -1.54277214158535      2.12839717024549      3.29586604506171
  H           0.00173173110605     -0.00246265968204      3.29801938263048
  H           1.19322503521292      0.83113397827092     -0.75344680140997
  Al          0.27891187263363     -1.52908427244029      2.57779832471970
  H           1.60150828942694     -2.07728594181875      3.28248456727840
  H          -1.18055318477339     -2.15652990208808      2.40004540709073
  H           1.20612947093658      2.13089232696327      2.35954705333095
