88
Coordinates from ORCA-job run E -4708.472067373360
  Zr         -0.21494478599602      2.07644737839783      1.44866893838803
  Zr          0.13103959112118     -2.17417892274161     -1.35031100673405
  Zr          1.80952423977919     -1.06555046325428      1.46484041710433
  Zr         -1.85138586743321      1.01287010242969     -1.43245414113150
  Zr          1.61688048302658      0.94507895463328     -1.65172076414958
  Zr         -1.66329594647840     -1.03899058738846      1.71088751964815
  O          -1.79008014401873      0.73465659881328      0.63196186573952
  O           1.71798222091723     -0.82953063984851     -0.59543572297672
  O          -0.09450503494538     -1.92791939402662      0.68287461166990
  O           0.07436842330955      1.85005253455490     -0.59406901932524
  O          -0.27907518829284     -0.20646517413758     -1.93714895884620
  O           0.20063121037690      0.13323697624401      2.00573706627558
  O          -1.60920517927726      2.19669803550842      3.19016484376586
  O          -1.58542519598964      3.75262299401994      0.92581126985022
  O           1.25285772946345      2.23084563349311      3.18250210601125
  O           1.39303505962434      3.55429499056914      0.94841672596683
  O          -1.18299511447293     -3.91991573650198     -0.67016545043327
  O          -1.62960750733726     -2.33764011044684     -2.68133644315013
  O           1.65060508957219     -3.74718235672977     -0.91232740180552
  O           1.33159600928951     -2.26954058201233     -3.22050582162696
  O           1.33988650100339     -2.20960322165074      3.31613927188690
  O           2.64362267366819      0.45220161473147      2.87217034167433
  O           2.59993604601268     -3.09831302036952      1.04376891757997
  O           3.90017925671635     -0.50399456507390      0.81893011305604
  O          -3.84057120734676      0.12680342624373     -0.88609956777465
  O          -2.68755016016420      3.01834959294180     -0.91145597909551
  O          -2.61649829653151     -0.33475736304106     -3.13645915877846
  O          -1.29818096802257      2.31183073806622     -3.15892500158161
  O           0.95880644082439      2.19636501354316     -3.36005331478084
  O           2.48641301547011      2.88147008528931     -0.92630966606092
  O           2.24983872000634     -0.21034335451811     -3.46237801858340
  O           3.79440434520113      0.66194855170231     -1.13953082251704
  O          -3.87447888301384     -0.81572628383667      1.19237457725176
  O          -2.39209432644569      0.08757766112746      3.47983655120660
  O          -2.47203340238725     -2.96974139331187      0.95121580340930
  O          -0.92585667436976     -2.23450131053062      3.44184559225846
  C          -2.28842414095731      1.31388084090756      3.79677993264058
  C          -2.41074969079723      3.88447277946945     -0.02540096384619
  C           2.18988272932169      1.45129847464602      3.52366128636527
  C           2.15694422117571      3.73604686309108     -0.04966309197620
  C          -2.03731151428453     -3.95286110403015      0.25945709327427
  C          -2.31543330156406     -1.53151536831100     -3.39784005225242
  C           2.44248390487170     -3.89500060750074      0.06712503131296
  C           2.03194842685244     -1.40275970570008     -3.83165798150913
  C           0.23672683441114     -2.53234309593231      3.85595990529157
  C           4.39632899677543      0.00600886828559     -0.23370145685636
  C          -4.41298754662271     -0.31684371081841      0.16763900326567
  C          -0.19031976145410      2.62490395564619     -3.68915936608923
  H          -2.71518723509794     -1.95610946578171     -4.36600055842658
  H           3.07114258848850     -4.83101404891902      0.07298808875514
  H           2.69897601500084      1.67116251091997      4.50704294540564
  H          -2.95577256970798      4.87076490747098     -0.09237121182318
  H           2.50710219644840     -1.72841315127773     -4.80132599913423
  H          -0.22758638120874      3.36545344833646     -4.53860545717763
  H           2.60223167610881      4.77668374675689     -0.16623224578745
  H           5.50880657897831     -0.12641962719562     -0.37435726366464
  H          -2.48941829434065     -4.95780438906616      0.49919213489033
  H          -5.54490154834201     -0.28338463144983      0.16085586744062
  H          -2.85628763035899      1.64855187452336      4.71129799271041
  H           0.29655097897173     -3.14591178021693      4.80017832727580
  Al         -3.19572864822355      1.90927563906765     -6.68747494729617
  Al         -4.30960996724872      4.64474164678090     -4.84448640146254
  Al         -6.00255334019398      0.29961590193106     -5.55206161174009
  Al         -5.61688267054921      2.38248436085996     -3.23951292383589
  Al         -6.79153301913207     -0.52712304538203     -3.02839771797988
  Al         -8.47617337146007      1.87627879814407     -1.79285779089027
  Al         -6.15459000431873      3.27462172362931     -0.11545007949980
  H          -1.82049773101179      1.30583058688196     -6.09615338704793
  H          -3.41887515968389      2.32675012802490     -8.23787388573065
  H          -3.20470409980736      5.01510769131278     -3.73073147672563
  H          -4.91605335032911      5.67024008571552     -5.93822680182229
  H          -3.75142239504742      3.27523616030930     -5.76613812737468
  H          -4.47861528087826      0.82946408174054     -6.26698017870256
  H          -6.83675572089309     -0.23674867081858     -6.81150159266284
  H          -5.38201158691878     -0.68958925628138     -4.33415299301689
  H          -8.30377704418988      0.22137417284368     -1.93626059337211
  H          -6.00386056042943      0.81946457812202     -2.40039217813700
  H          -7.69200845217590     -0.11711280909273     -4.36202063791829
  H          -6.68096906592906     -1.94580261901588     -2.28059309176978
  H          -7.49119870479157      2.16503717823819     -0.42125005950253
  H          -5.30942315850097      2.53770348839168      1.04402311626397
  H          -6.83800050029274      4.73513851262241     -0.03079330683703
  H          -5.46583875013115      3.19490841935107     -1.66603259174657
  H          -5.70253896124167      3.96906573092594     -4.04697926214651
  H          -6.27502264041493      1.81123649189007     -4.83667296404496
  H          -4.07131051275881      2.01094613243914     -3.44289552927579
  H          -7.50949783769065      2.60053616881880     -2.98747840232968
  H          -9.94918300601207      2.49241236528581     -1.61777206444127
