4
Coordinates from ORCA-job run E -243.950104253503
  Al         -1.36453522787387      0.62187441810225     -0.21289368518425
  H          -0.52834491224424      0.41230683172542      1.15883986067332
  H          -1.29463115952571      2.04233824319189     -0.98729426084222
  H          -2.27293870035618     -0.58686949301957     -0.79258191464685
