92
Coordinates from ORCA-job run E -4952.486148175839
  Zr         -0.54099885176111      1.89986103536404      1.32972424695085
  Zr          0.58162114049916     -2.17712923717599     -1.56716930303927
  Zr          1.74777858756740     -1.08391321063805      1.51597653324735
  Zr         -1.74034127174987      0.78577856012757     -1.73923506416930
  Zr          1.72374675886098      1.09269746357290     -1.55091450613389
  Zr         -1.69772346197404     -1.35942356575457      1.27645188113037
  O          -1.90784708546046      0.41874128860675      0.30215509376175
  O           1.87282662832950     -0.70343709676463     -0.53372549646975
  O           0.06723135489519     -2.09084284227228      0.44573866805577
  O          -0.05355026704626      1.76195159080403     -0.67367411428735
  O           0.02296161878198     -0.24492054045202     -2.12345186441534
  O          -0.02642138236034     -0.05417879236607      1.85468888124482
  O          -2.02443564526015      1.75939281229407      2.96939297871764
  O          -2.12377116232859      3.34246180610078      0.73638236913374
  O           0.94891989817596      2.10953663923493      2.97876408919190
  O           0.73025564549861      3.72517359859174      0.93937154447678
  O          -0.69569443099772     -4.03803887311818     -1.18771134884535
  O          -0.89162864140568     -2.45213780192894     -3.24571301274810
  O           2.16714386624486     -3.61900049683628     -0.96557358728416
  O           2.06137896133055     -2.04920781160868     -3.21738782837062
  O           1.14517554851067     -2.48905591038327      3.14701103509106
  O           2.15661420139589      0.21076415242176      3.32255384237709
  O           2.89671930639971     -2.93049797726821      1.06770624342713
  O           3.69457787813207     -0.02797386633243      1.22669293584217
  O          -3.84406857500089     -0.02683597700668     -1.35589191443644
  O          -2.81828342158361      2.68982767943976     -1.32184074039099
  O          -2.28673834404245     -0.66016294504216     -3.35196364115688
  O          -1.16103724573066      2.10742946151580     -3.42529210297499
  O           1.09199845797553      2.32365593603046     -3.29783055757986
  O           2.24308567174357      3.05159585874528     -0.61955443934862
  O           2.72687068840938      0.11668798229440     -3.28315533653840
  O           3.86129927119542      1.01775850329982     -0.78852235409834
  O          -4.08076588843658     -1.21587833904530      0.58235181929198
  O          -2.70762472721206     -0.40194571969727      3.07250256576509
  O          -2.32518799178152     -3.09793305526161      0.07668653828464
  O          -1.10443460266241     -2.62700745317982      2.96285442576960
  C          -2.68356151970295      0.80807132711388      3.47959173204975
  C          -2.82973987115591      3.45866084007592     -0.31147936970459
  C           1.67437101915585      1.32566123292424      3.67623783855166
  C           1.65704386477262      3.92392209190447      0.10136235794844
  C          -1.72384339638178     -4.09587377266735     -0.46371318451806
  C          -1.74734861991820     -1.71166070446185     -3.81901299723673
  C           2.89439224302139     -3.71584261363421      0.06878784726800
  C           2.71641429654190     -1.07829249827421     -3.70816226579428
  C           0.01165713587975     -2.93564229003804      3.49108992132186
  C           4.34073259504186      0.47340138158143      0.24777743107809
  C          -4.52001680384202     -0.56973655786435     -0.44834442645084
  C          -0.04108333582095      2.56087079042409     -3.81623353210879
  H          -2.08318666644328     -2.03076991343846     -4.84777567192385
  H           3.61153682134772     -4.58462773655188      0.10530151221407
  H           1.92810822992909      1.67659637598511      4.71812006300428
  H          -3.53829910501099      4.33448350554911     -0.34882977794307
  H           3.35170058690127     -1.30171203273025     -4.61207503591810
  H          -0.05740146548828      3.24194108222478     -4.71435650127942
  H           2.01944304634133      4.98683035532527     -0.00894847828963
  H           5.46632185113450      0.44215207179307      0.32590371688201
  H          -2.17632594549611     -5.11041723788095     -0.27360571194697
  H          -5.64165313494804     -0.50944190031306     -0.54936652222963
  H          -3.30844808675127      1.05359519189041      4.38279870267518
  H          -0.01861206412610     -3.67331162739365      4.34112630007417
  Al         -6.73310901811864     -4.74267727039374      3.57779560497388
  Al         -5.17484196986670     -6.28746998675967      6.01605277198626
  Al         -4.01664988895643     -4.64479929385281      3.56572861090187
  Al         -5.56863845542108     -2.50583250991809      1.50750476783965
  Al         -3.45067977268641     -1.96631784280687      5.47483629433575
  Al         -5.47623751248213     -3.30789806658978      7.82118300200360
  Al         -6.32762056936395     -0.71528322331601      4.20602819674206
  Al         -5.33516547959283     -0.11392650550978      7.28931889573120
  H          -5.39386485733313      1.34639737065876      7.97344353548982
  H          -3.89772198287379     -0.38685522406758      6.42430325391665
  H          -6.45208239447689     -0.44362336992569      6.09885058875199
  H          -5.41824800434071     -1.41842897575097      8.33107845656071
  H          -6.94525193942388     -3.22188868665897      7.15589879467499
  H          -4.90079037908720     -3.69297347539737      9.27805874382038
  H          -5.13370219684511     -5.07392102405345      7.15758100616609
  H          -4.88715880228876     -7.75987997057989      6.61634511027346
  H          -4.17838570030535     -2.88778337713688      6.73124741457837
  H          -3.94052115838240     -5.81808486959935      4.94479104228898
  H          -3.24116147142236     -3.44292142850313      4.56071805624525
  H          -2.82493767836676     -5.34847704552787      2.72018350348715
  H          -4.30210448615709     -3.28367589123907      2.31709538757118
  H          -6.05852699405739     -1.15609919648169      2.37911187853318
  H          -6.13973985172869     -2.91407127750240      0.04906867483094
  H          -5.92931967596132      0.83312963104274      3.93050110412534
  H          -1.90052764251140     -1.61455432871694      5.75368114273029
  H          -4.83032828050577     -1.60771609952194      4.49595378137300
  H          -8.28117210865235     -5.16880580286464      3.67064187154863
  H          -6.53353747286943     -6.08066323521868      5.08461349971701
  H          -6.77926622891314     -3.50458974303392      2.37731402197178
  H          -5.45305427702601     -5.60030103991542      2.79459858548169
  H          -7.69453909494358     -1.56887021460512      4.30327837789569
  H          -5.54427775616946     -3.90413861190351      4.47045398692854
