64
Coordinates from ORCA-job run E -3243.920595743360
  Zr         -0.03507006093731      1.69920005791860      1.48709770921600
  Zr         -0.04167836233078     -2.29167351755378     -1.35067120325515
  Zr          1.40199925846673     -1.24110247643879      1.97312025108486
  Zr         -1.48088857487476      1.12900080046395     -1.46823619400567
  Zr          1.80195230997568      0.94422366026862     -1.18955902883569
  Zr         -1.87534369651372     -1.08035716431503      1.60792840930067
  O          -1.53977278360845      0.59046663006110      0.50848169891281
  O           1.56271881876097      0.37775972476073      0.75673806482349
  O          -0.14030500685170     -1.89422910661164      0.60422872586697
  O           0.16920121116316      2.01565253405446     -0.64357244669737
  O           0.06963023901042     -0.31197718803812     -1.60308290568264
  O          -0.24184309318573     -0.21420721096057      2.49732146648695
  O          -1.58311192498328      1.98358955037392      3.08801316341234
  O          -1.32838538579338      3.47462114745257      1.01235247556182
  O           1.21850453780673      1.85395910055409      3.33321680750411
  O           1.45599186795670      3.34217674289890      1.25169288818863
  O          -1.31313272445103     -3.95277998296565     -0.81062489531026
  O          -1.71767820014931     -2.10890483281248     -2.65889884713570
  O           1.62895480019871     -3.50455827909584     -0.82689244696899
  O           1.18341609370193     -2.30337952684899     -3.13122129686839
  O           0.62849641922519     -2.64397235502588      3.47047321823304
  O           2.18587498949690     -0.13437563105852      3.64120283610903
  O           2.22836306554677     -3.16795294238866      1.28675208023440
  O           5.62015846309146      0.14340645368666      0.53492528501601
  O          -3.53421469795944      0.39653226424110     -1.20905165865765
  O          -2.38494982873350      2.98996751890208     -0.89747710289744
  O          -2.07152178436124     -0.01094362613551     -3.31783693934579
  O          -0.72940999015476      2.28770711362847     -3.19219569986874
  O           1.47437584402728      1.98822985621367     -3.07449594388030
  O           2.69180608111995      2.83351283248908     -0.53962618199485
  O           2.50764811188704     -0.57794004502374     -2.65773857908914
  O           3.88821707219165      0.47296214875165     -0.79200288815869
  O          -3.86327974876223     -0.68965427570209      0.71448300440987
  O          -2.82639359514887      0.12314994297004      3.11851288977618
  O          -2.61981220360445     -2.96663093710695      0.69677271567278
  O          -1.58196726756406     -2.52408077608850      3.23228592671483
  C          -2.46465679583605      1.24745444017430      3.55640028936550
  C          -2.08080105288992      3.74451886134996      0.06646641436367
  C           1.89024886583970      1.03980375616565      3.98503101611568
  C           2.30106643564412      3.59718492466667      0.37991631541578
  C          -2.23296295396972     -3.95056616189766      0.04357941095181
  C          -2.10219641818293     -1.23306084007457     -3.48728473527395
  C           2.21637168797126     -3.82880662382167      0.23885592505455
  C           2.11151704151219     -1.49794308114870     -3.39195305553404
  C          -0.54333950622853     -2.89404643391912      3.82157904814203
  C           4.96250120812232      0.83043724333507     -0.28147905941839
  C          -4.24699502982563     -0.04302042808626     -0.27665248154496
  C           0.44078273303281      2.50692390072574     -3.55782089538768
  H          -2.50695713061709     -1.60887299695664     -4.43549633755882
  H           2.76504343759435     -4.77656903738809      0.22717896663687
  H           2.28166566278366      1.37255501352907      4.95499393418689
  H          -2.54577225760862      4.73929031699095      0.06298659358983
  H           2.61936956029176     -1.63411723859928     -4.35512780389535
  H           0.58199769977091      3.20859599046337     -4.38992884010308
  H           2.77627663433423      4.58688362449982      0.42106100446814
  H           5.38987236174265      1.80095357550413     -0.56204164816167
  H          -2.74456892386202     -4.90622551668465      0.21420109481225
  H          -5.32647949856166      0.14421758472531     -0.35630965959543
  H          -3.00265127768940      1.61339172519112      4.44106505652367
  H          -0.67413925353500     -3.50673404991874      4.72273988282785
  Al          5.02800725709287     -1.51791413179691      1.17513375589398
  H           5.97338911522983     -1.89314644004747      2.39032524650167
  H           3.53807042671666     -1.11456241588225      1.75069831014946
  H           4.88388806511689     -2.51797909691529     -0.05918539021733
