28
Coordinates from ORCA-job run E -1707.295215967887
  Al          1.39253620994262     -4.12163193759769      0.59299665122447
  Al          1.69957178621550     -3.98532772455414      3.92891494893410
  Al          0.94715873548508     -0.95898107668783      1.11096551613427
  Al         -0.74877961067869     -2.17740724289976      3.36812080730328
  Al         -1.10634137601397      0.62061787089969      2.12381614534761
  Al         -0.87510284861495      0.45101839672278      5.19359734151567
  Al         -2.46932592747997     -1.93551949199620      6.00109262331751
  H           0.18506448979582     -4.99072962268291      0.08918283421096
  H           2.90694752752918     -4.27119433335436      0.18597082811617
  H           1.59219589678129     -5.43122421361132      4.53965261499843
  H           2.88866570299058     -2.96352507886028      4.08297289248257
  H           1.36732638931029     -4.11000764918430      2.28099967453113
  H           0.99950718888567     -2.49458291547753      0.36345539951002
  H           2.26385984587480     -0.22618495796422      0.69422543440398
  H          -0.55659697407479     -0.49935497379183      0.64915303233069
  H          -1.40056161720342      1.27283072602500      3.88710458611822
  H          -1.67268242432281     -0.79658960007190      2.76407168630123
  H           0.47780950640553      0.78861840261831      2.35039739405986
  H          -2.10875447160084      1.56578681110380      1.38217172676713
  H          -2.32359634193426     -0.25029583336537      5.66575800349825
  H          -4.00395537845638     -2.15960047156071      6.24662780035647
  H          -1.25584321475033     -2.23887192337900      6.96123578518048
  H          -2.05685368692926     -2.44775233587873      4.47487886283084
  H           0.28176921536128     -3.16053478383658      4.32150446524122
  H           0.74233098585204     -1.58215434871780      2.62083054257963
  H          -1.20130257672633     -3.15861941615845      2.21400597678408
  H          -0.14873004113601     -0.89295742199585      4.59360344572548
  H          -0.16095699050748      1.24191514625772      6.34042298019538
