76
Coordinates from ORCA-job run_pre E -3976.513268007080
  Zr         -0.56969543556221      1.75998520229924      1.88024849194125
  Zr          0.27855648976475     -1.89278748111643     -1.57857777871559
  Zr          1.68982218151217     -1.21508475614206      1.53966631927707
  Zr         -1.96821196261148      1.06395441655498     -1.21391418620081
  Zr          1.51819635025586      1.32682071310097     -1.19433334503197
  Zr         -1.77557714877715     -1.48399844864025      1.51864609185780
  O          -1.97244901539190      0.43956999811368      0.75855744915114
  O           1.68657676510504     -0.57025356927395     -0.45475517899938
  O          -0.07469691524235     -2.05100595720909      0.45287070156293
  O          -0.20497490832049      1.92733603468314     -0.16510345262364
  O          -0.23704490480098      0.11684315004135     -1.84982155353622
  O          -0.03663647353803     -0.24067676300727      2.14146572672737
  O          -1.92394524868990      1.43272212926939      3.60795472344447
  O          -2.19191931107384      3.26911588585931      1.56999870751267
  O           1.07299585330910      1.77008575349574      3.40239917762084
  O           0.63712935365780      3.66911289418541      1.68517789510855
  O          -0.93200868642358     -3.80138279138752     -1.33734039228269
  O          -1.38999099085258     -1.91155951933844     -3.06396233597210
  O           1.91799742564522     -3.37616084595430     -1.32066512610483
  O           1.59819129726195     -1.53359901161536     -3.34080506646952
  O           1.19377341651001     -2.81796861585991      3.00796235886205
  O           2.25571148111447     -0.17405146611568      3.46737147955701
  O           2.76827142623226     -2.99429271092297      0.74808856884555
  O           3.63363837568602     -0.16967478437442      1.25105692808977
  O          -3.90599036781946     -0.01689812331893     -0.94076543452021
  O          -3.01522851482633      2.87618231557009     -0.50693021802981
  O          -2.54817908387561      0.04417479214098     -3.16067386321705
  O          -1.48238344935170      2.64563501890741     -2.77039538863521
  O           0.75103464197781      3.01628970931176     -2.70340924186677
  O           2.15684162904668      2.98477149975139      0.14451869250634
  O           2.24029471583821      0.63728660686699     -3.18077032088860
  O           3.71703186288196      1.05431123360487     -0.66832587982658
  O          -3.96474860081561     -1.29436799236214      0.94255877775110
  O          -2.64277046015530     -0.71150051955955      3.42572518736232
  O          -2.38830215797029     -3.27830280938130      0.33270830499777
  O          -1.07131076150006     -2.94307139751010      3.03986560605778
  C          -2.56976369314766      0.41309934966363      4.00558605870875
  C          -2.94925339786610      3.52282038632252      0.58847849706262
  C           1.82691760534074      0.90823945274815      3.96285749392949
  C           1.61440413841430      3.85588482934966      0.90778481541885
  C          -1.83378053640795     -4.07589318178416     -0.49505256437547
  C          -2.13254291681893     -1.04850454504939     -3.64056637839640
  C           2.71016294678642     -3.61349458858492     -0.35887336495049
  C           2.16678264052179     -0.48494725654657     -3.77157894312687
  C           0.09110868780921     -3.29530726913313      3.41249832052642
  C           4.23705020113690      0.40514564785730      0.28194848475022
  C          -4.49827487642915     -0.62761747465293      0.01074765997755
  C          -0.44920078235949      3.24166323124056     -3.13666432455519
  H          -2.46623348372904     -1.30100270945836     -4.68901161989136
  H           3.43845106526633     -4.46228199701776     -0.50188526942872
  H           2.16149423790039      1.14896551630631      5.01373155907850
  H          -3.63934541683352      4.40799379791728      0.69089916360861
  H           2.65984136471892     -0.55336650053651     -4.78303557826588
  H          -0.54451914857694      4.04992380456245     -3.91672099807308
  H           2.07180354568123      4.88698242473354      0.88791368362885
  H           5.36360013589019      0.33433986565353      0.28871668106274
  H          -2.20505638424274     -5.14193971863121     -0.48156851661071
  H          -5.62614381989202     -0.57769413639115      0.00607054237366
  H          -3.13582294637488      0.52209591926534      4.97461429867769
  H           0.14657741906369     -4.11691328854773      4.18270290572261
  Al          2.35689855885941      4.32734072611814     -3.14153824347566
  Al          0.59169449951929      6.72062309560893     -1.84160284846347
  H           1.49429300675598      7.43414372485124     -0.54328758513197
  H           0.78778851292619      7.59184916708211     -3.18473962898507
  H           1.58998896435043      5.32701276320633     -1.91066423270823
  H           1.84068391687955      4.69256344511621     -4.63199828384182
  H           3.63516974654711      5.70644719251045     -3.18906290668601
  H          -0.81409441054683      6.23298031415269     -1.20615497243419
  Al          2.78932993569550      8.61608683028230     -0.65146835095469
  H           3.72067237816157      7.89498630906307     -1.90871682900804
  H           2.15628875568864      9.96293925160775     -1.27664846749410
  H           3.37865888674546      3.23145898984381     -2.53277055496371
  Al          4.54577711120259      6.32317558617197     -1.90728222006863
  H           6.05687613401309      6.66442443149962     -2.36517642698750
  H           4.12923505322000      5.64107266368604     -0.49852873662489
  H           3.54719954920509      8.47999666202891      0.76718265270900
