72
Coordinates from ORCA-job run E -3732.509655106493
  Zr         -0.19375107012643      2.10423549861753      1.48370783491868
  Zr          0.33210645539819     -2.00480103532924     -1.50114812354729
  Zr          1.81605978058182     -1.03892457029738      1.51779376306979
  Zr         -1.68782065660932      1.12097753862671     -1.51951289395675
  Zr          1.79412423620740      1.12884807076951     -1.54631796004509
  Zr         -1.65683355124831     -1.03349855795309      1.54643698652296
  O          -1.71236900726050      0.76217172910104      0.52124677222004
  O           1.85016681730394     -0.67430091732962     -0.52371837255313
  O          -0.05101562520097     -1.87960715431248      0.53328561048546
  O           0.18410467447376      1.96416037184213     -0.54270678543086
  O          -0.04841733186406     -0.04115920579657     -1.99025537410407
  O           0.18989349575347      0.12994391353654      1.98665944915715
  O          -1.63789208678388      2.14001722060283      3.18704520828591
  O          -1.62135707191480      3.73317916687586      0.95135546737441
  O           1.28223698110101      2.17073674440355      3.19505148936924
  O           1.34176396669943      3.69030265209413      1.08868972988155
  O          -1.35182267141453     -3.41436527542242     -1.17651219698953
  O          -1.03717705839112     -2.05138453458644     -3.34175994758006
  O           1.76217808014839     -3.64028038207234     -0.97106359592237
  O           1.81610537552114     -2.04511786647053     -3.18192370795566
  O           1.23294105650842     -2.42811690139664      3.17546401650531
  O           2.45762889000257      0.21271990696415      3.29088577391010
  O           2.74242044999168     -2.98868548096856      0.97164096674194
  O           3.83173740920164     -0.16670169100401      1.11644059669816
  O          -3.70956289280056      0.29302914137241     -1.09765595781393
  O          -2.61307983384120      3.08133895357346     -0.98705415486866
  O          -2.32463678944387     -0.16328921838248     -3.25011967514648
  O          -1.09947050193348      2.48891875554816     -3.19779275220388
  O           1.17005359548592      2.39884239561287     -3.26465043844428
  O           2.57163379237608      3.06968787244944     -0.72438804809470
  O           2.62891281846185      0.07103636237790     -3.32492819141958
  O           3.95931592566853      0.87831626333859     -0.90411373892813
  O          -3.84540444079846     -0.73158549638001      0.93447916916105
  O          -2.46649927975171      0.03054704729996      3.33772303244512
  O          -2.50681652700455     -2.93755460428255      0.72259793915389
  O          -1.03512286718168     -2.32488307403135      3.23905404038822
  C          -2.34728180208726      1.23382976743087      3.72219673318709
  C          -2.43085477321636      3.87717684914934     -0.01536795724237
  C           2.04686606361094      1.32200343449719      3.75311625019804
  C           2.16451505173041      3.90106020200624      0.14586578824154
  C          -2.18943236760190     -3.67658466712874     -0.25770058122358
  C          -1.86397189116707     -1.21156382458401     -3.80848319925634
  C           2.58620716525275     -3.76955032868094     -0.01344821219378
  C           2.52618942627452     -1.13534301151802     -3.70753312403131
  C           0.09578322989451     -2.73857153735973      3.64202305761112
  C           4.45355841280393      0.29609370268458      0.10373856707755
  C          -4.33284207301214     -0.14520236240959     -0.07383373641163
  C           0.03521331321277      2.79362035437358     -3.67518785449677
  H          -2.25481185192791     -1.42418714877354     -4.84715612769527
  H           3.25287224550497     -4.68038063062458     -0.04153959731395
  H           2.41936912202881      1.59593934871153      4.78381523017235
  H          -3.05691837268656      4.81567173378985     -0.01023422826503
  H           3.13270193433587     -1.42852282524216     -4.61230705972262
  H           0.03725496247042      3.49191374945775     -4.56119115553684
  H           2.60108914156814      4.94043583134601      0.08657455444292
  H           5.57746921392838      0.18783508726031      0.12125787379600
  H          -2.72685407705928     -4.66618454509618     -0.34376542943720
  H          -5.45370491495186     -0.00648698777939     -0.08316684323959
  H          -2.93479662610055      1.53041227370119      4.63826880200644
  H           0.08758404303875     -3.45756434030892      4.51110313418598
  Al          0.18063664886923     -6.34870511882966      1.46277168864987
  Al         -2.02171679091495     -8.21867548008398      0.03702719422359
  H          -0.72536800938779     -8.33426351577287     -1.11403553739083
  H          -1.90758257163362     -9.53208477932774      0.96178565330982
  H          -1.38313647735540     -6.84997847529699      0.90973090986226
  H           0.69309399321831     -7.35011010002415      2.61596017028803
  H           1.00896845709624     -6.81460887102981      0.00740643411410
  H          -3.32403797427143     -7.61709355739131     -0.69833278037732
  Al          0.52194494817990     -7.20442316260212     -1.61942071660089
  H          -0.25674037983009     -5.97725539909845     -2.29995815987021
  H           1.72557458891036     -8.11012745105355     -2.19051331057637
  H           0.14040843679624     -4.74718740471772      1.48297682086098
