92
Coordinates from ORCA-job run E -4952.468807439691
  Zr         -0.16434037951547      1.98813496421210      1.43136308489916
  Zr          0.18977892183773     -2.40232948257906     -1.15406239651736
  Zr          1.96378568558946     -1.10265326041445      1.52836217619274
  Zr         -1.96450527015036      0.66798488553055     -1.24196087122825
  Zr          1.48430625340491      0.78799372493512     -1.68653324272231
  Zr         -1.47232976479693     -1.19749766972051      1.97060389092921
  O          -1.74793981286292      0.49605142692398      0.80931862916003
  O           1.75267030213527     -0.91210015560967     -0.53219126656866
  O           0.07907060367631     -2.06045742981571      0.89083755350843
  O          -0.06691835829646      1.62983728043091     -0.60433621856751
  O          -0.35629216655165     -0.51092300288563     -1.80769674529228
  O           0.35626782332888      0.09084564570412      2.08887022302942
  O          -1.32039170129710      2.11541552287205      3.33513579530062
  O          -1.78308011028497      3.46941290528965      1.00332197998528
  O           1.63038172656086      2.30835887628995      2.71469754955807
  O           1.08099023644042      3.67185536677775      0.58281212974784
  O          -1.09921369749230     -4.05942342460936     -0.33221948702350
  O          -1.57313587319428     -2.73964856185563     -2.49589890148861
  O           1.78453842312174     -3.88673589531723     -0.69594893979944
  O           1.36925123248180     -2.53179708775654     -3.03859506313469
  O           1.64160802089379     -2.23012147058619      3.42523643970454
  O           2.82366885623701      0.39241536033968      2.99030370419543
  O           2.88446100626056     -3.09084935498447      1.11800505944922
  O           3.97849824240348     -0.39600718376686      0.79628795984291
  O          -4.00479951364921     -0.00637397134258     -0.48673180542688
  O          -2.84484203275455      2.67398464152691     -0.83204268220189
  O          -2.83332504083882     -0.85681037512257     -2.68654772655115
  O          -1.62553938337980      1.79071743986576     -3.13810859933047
  O           0.60613438105581      1.73580537814562     -3.51469963765724
  O           2.09181621188898      2.93681699620158     -1.32646947622888
  O           2.23208103009235     -0.46333424789012     -3.37433372663743
  O           3.62790077216464      0.86842889182838     -1.06087998897042
  O          -3.64093674606654     -1.24327577560927      1.38713251588468
  O          -2.19692716853126      0.05150697135600      3.66645242121530
  O          -2.12026775484096     -3.32044803840424      1.56720460298543
  O          -0.59737547930958     -2.17409073111696      3.77264497374353
  C          -2.00637147932881      1.26632292361163      3.98416910714054
  C          -2.65676062059765      3.52789797793920      0.08814343901478
  C           2.47097691911875      1.56403376052034      3.31600652354254
  C           1.73107862316236      3.82881831535482     -0.49725828508450
  C          -1.76247104974009     -4.21462916122302      0.73954510575744
  C          -2.43027452016969     -1.99722028707476     -3.06935960230558
  C           2.66474181559337     -3.95553505527130      0.21567377667649
  C           2.06122358590988     -1.68340256978858     -3.68222143760247
  C           0.59149823566631     -2.48524006216306      4.09055037013560
  C           4.35807599563672      0.22438757351343     -0.24173448316101
  C          -4.37243855864551     -0.59226514932383      0.57755618423208
  C          -0.58610094387912      2.02876531282063     -3.82721508512642
  H          -2.89487190983315     -2.40996844406281     -4.01269860742858
  H           3.31610401412083     -4.87561016749540      0.22398355419927
  H           2.96414927076912      2.00843795181409      4.23013509619262
  H          -3.34927551565819      4.41868832043068      0.09445724060451
  H           2.57307751077840     -2.04927722472323     -4.61714418122160
  H          -0.74982559449757      2.53716503094344     -4.82126919997911
  H           2.03832705918265      4.88758361947151     -0.74236055152554
  H           5.46626784014605      0.22593222100465     -0.45485174589854
  H          -2.08717554875347     -5.27030184531800      0.97569118971905
  H          -5.47373689404117     -0.54745906006348      0.82530359029265
  H          -2.49407594347668      1.62526526581004      4.93459297962992
  H           0.72769318467999     -3.04320271096386      5.06063455580409
  Al         -3.70985027092837      4.90199425516395     -3.81210380124589
  Al         -6.22629863730796      5.52319456903506     -1.94773386791460
  Al         -6.06385182548134      5.19807790660944     -5.13802272934314
  Al         -3.72007815239309      3.76043921345265     -6.80053064083897
  Al         -7.79506674980292      2.21886596219315     -4.93414150526667
  Al         -6.71897832308001      2.09786267269027     -1.80082639717930
  Al         -4.84878031127363      0.77979335390316     -5.47955711787187
  Al         -7.18772294067532     -0.61076759228480     -3.61164388719125
  H          -7.82508106184533     -2.07883183322976     -3.40360250318609
  H          -8.16547904226955      0.44840575506968     -4.49462696658867
  H          -5.77622301296207     -0.55957834858008     -4.48765772246495
  H          -6.95597225869260      0.26164155124504     -2.21320399501923
  H          -5.17602402826017      2.18044240804293     -2.20668273688372
  H          -7.67322800510561      1.92280460718118     -0.50791609729718
  H          -6.77700371546109      4.05191898506148     -1.44068735214011
  H          -6.60462518878521      6.80903189832703     -1.04951014524010
  H          -7.69891366618896      2.51806069506653     -3.22925674635901
  H          -6.79931739048979      5.64977635527757     -3.52684939210628
  H          -7.16095328613329      3.84216919365624     -5.20694010168964
  H          -6.79814550318771      6.38511002031102     -5.94549721424001
  H          -5.20634682328404      4.53271846478980     -6.60968115765647
  H          -4.09659983062317      2.15669580375304     -6.67903087316162
  H          -2.93843960947703      4.23420599385388     -8.13000869314681
  H          -4.58094210864420     -0.29237200000324     -6.65751528931978
  H          -9.19915388661664      2.36199384499241     -5.70903377428484
  H          -6.39202452343835      1.60973771510318     -5.75583100551375
  H          -2.26091438136646      5.07346245138673     -3.12882897589020
  H          -4.56316509054861      5.37149592443327     -2.20847227955604
  H          -2.92884609281009      4.20713210950308     -5.37513004394341
  H          -4.48507406738315      6.16099870595465     -4.67670380118101
  H          -4.10745259721002      1.42247770535185     -4.21446587949131
  H          -5.04951166647931      3.90287237051890     -4.14559962264459
