64
Coordinates from ORCA-job run E -3243.944726719029
  Zr         -0.03454485593047      1.69360115385670      1.48441094715447
  Zr         -0.03962453741124     -2.30103727070051     -1.35525747759339
  Zr          1.39978764435226     -1.24494826932056      1.96339664937280
  Zr         -1.48085436646039      1.12021812154385     -1.46694516131336
  Zr          1.80231480537640      0.94974961987929     -1.19203141976707
  Zr         -1.87466366598295     -1.08670137011787      1.60984575589335
  O          -1.53980104266510      0.58684858386026      0.51022180201382
  O           1.56715069135723      0.38107137978164      0.75733244409159
  O          -0.14569920563242     -1.89482841159796      0.60125069089965
  O           0.16684895531363      2.01354115302524     -0.64175307981024
  O           0.07716947065982     -0.31669715351316     -1.60204246659276
  O          -0.23812239309314     -0.21619690579346      2.49603655561466
  O          -1.58084519245727      1.98203694083699      3.09241805427635
  O          -1.33125077617172      3.47130052497344      1.01386310448932
  O           1.22070943813233      1.84944162328892      3.33692451961888
  O           1.45386211356063      3.34402463902740      1.25632271903825
  O          -1.35748489087049     -3.92224116541402     -0.82002256992815
  O          -1.66772940156607     -2.12440170560363     -2.72042393716567
  O           1.57172985463022     -3.58625235802908     -0.80434936983941
  O           1.24238429670849     -2.31192808045012     -3.08875299167380
  O           0.63412122128394     -2.64017060665265      3.47082899404774
  O           2.19422433670483     -0.13767333786335      3.63207819860379
  O           2.22334814400668     -3.16703589751053      1.27824855037953
  O           5.62871325241077      0.16136107177278      0.53436441176100
  O          -3.54465062286777      0.41826924836078     -1.20366835384166
  O          -2.38021552486689      2.98972515538882     -0.90040135995461
  O          -2.07461747604382     -0.01665186361392     -3.30873390762715
  O          -0.73502699897834      2.28483908454428     -3.19019790351581
  O           1.47061838606838      2.01027792460931     -3.06712676161670
  O           2.68243932322472      2.84369536211958     -0.54126672489434
  O           2.52400073805313     -0.53961407802661     -2.67846479086535
  O           3.89529611776768      0.48762579817095     -0.78659145500954
  O          -3.85507929251199     -0.70780234658334      0.69950587592478
  O          -2.83185147016754      0.12743114245526      3.11247322704335
  O          -2.62103038531807     -2.99352080229415      0.75882265133115
  O          -1.57738726949202     -2.50081548789981      3.26239765126085
  C          -2.47198331382585      1.25161771147491      3.55519062192552
  C          -2.08363824576846      3.74446136162088      0.06629137642241
  C           1.89898069140025      1.03538868721971      3.98453822727492
  C           2.29926436979487      3.60505554289470      0.38343085818828
  C          -2.25375639998741     -3.95415565421861      0.05964996619566
  C          -2.07815622193759     -1.23479584245842     -3.52024671779222
  C           2.17103804989222     -3.87887811014912      0.26278642244507
  C           2.14604603990401     -1.49013278834751     -3.38475141447655
  C          -0.53598095179879     -2.87987267834471      3.84196591967364
  C           4.96388779233820      0.85789336436678     -0.27215315938042
  C          -4.25200990956749     -0.04545284719028     -0.27874812810935
  C           0.43390337703589      2.51914463604966     -3.55624156924052
  H          -2.47972305372845     -1.58872834641439     -4.47703416294675
  H           2.69421133013977     -4.84033961031383      0.28618339241380
  H           2.29457422289309      1.36509282046374      4.95299422161269
  H          -2.55137063563164      4.73695420172737      0.06491740946897
  H           2.64757961510137     -1.64038345197515     -4.34802589171363
  H           0.56918933444281      3.22132975706195     -4.38755033321786
  H           2.77634184634636      4.59255427437233      0.42893278121463
  H           5.37873212577257      1.83755081785707     -0.53499293753603
  H          -2.76009911577548     -4.91494565700727      0.20929424374940
  H          -5.33277629814173      0.13162597841285     -0.35086851538474
  H          -3.01659502807769      1.62043632535868      4.43347118768225
  H          -0.65980036564954     -3.48600888616723      4.74728911686512
  Al          5.02517221303271     -1.50704620519482      1.13203141593669
  H           5.99471310415812     -1.92500450415020      2.31999776620157
  H           3.55594126878121     -1.11850129756053      1.75118975911927
  H           4.87917308538214     -2.48535634619655     -0.12090721221693
