80
Coordinates from ORCA-job run E -4220.489644050102
  Zr         -0.01562961199120      2.06275872966752      1.48558591622881
  Zr          0.23745412983889     -2.12062787777971     -1.44135168911546
  Zr          2.03906550603391     -1.08408292759258      1.35223361661153
  Zr         -1.77941082986676      1.02411474803813     -1.31885764731096
  Zr          1.67688874884635      1.03500846808228     -1.70311888261206
  Zr         -1.41120165850237     -1.09508303338703      1.77356183038244
  O          -1.60092633226349      0.68942211540566      0.73782753949881
  O           1.84553713070150     -0.76593454259029     -0.68973896492681
  O           0.10146332300674     -1.93879405593788      0.62446696528216
  O           0.13909953304007      1.88538800818416     -0.57288312043899
  O          -0.19176136266630     -0.14754436549603     -1.94568372367232
  O           0.45350137697581      0.09471683236723      1.99993240891246
  O          -1.15951021437577      2.10113476222657      3.39439896021050
  O          -1.57587658909780      3.62095463398308      1.13444153021536
  O           1.75893698321718      2.21280910570803      2.85395036948446
  O           1.31349932899264      3.79056916025579      0.84299637101668
  O          -1.16913179693587     -3.77463882754784     -0.79755301578153
  O          -1.49422635137825     -2.23320933346510     -2.86442111130120
  O           1.74386171250142     -3.72547504997467     -1.06440879405060
  O           1.44151975280958     -2.16464945157352     -3.31267873977693
  O           1.64487960680940     -2.35567496045807      3.15030048696422
  O           2.91708076642272      0.25554334553213      2.94288150914981
  O           2.87030531173398     -3.07543631585883      0.79824416010154
  O           4.03789129995079     -0.32384284816695      0.67296345797854
  O          -3.72633559523353      0.11721570891191     -0.70596794599969
  O          -2.69653696417325      2.96550411412139     -0.72943599315767
  O          -2.60099908428093     -0.24614944217033     -3.00943826406312
  O          -1.35822072805348      2.35583926810763     -3.06443789180017
  O           0.89334335501674      2.30712881402547     -3.35289855836812
  O           2.52891096657367      2.93282620618213     -0.87878250208168
  O           2.28462790226498     -0.06865359701126     -3.55099514899240
  O           3.89689367658303      0.77637536659898     -1.31857796753344
  O          -3.64972061123466     -0.92212502512687      1.31927291603912
  O          -2.07520397976485      0.03544393166358      3.59442817820002
  O          -2.22056880723505     -3.07864506144995      1.09785747494262
  O          -0.60045684959429     -2.27720069380433      3.47772094391658
  C          -1.85658729320543      1.22283836959931      3.98657192674940
  C          -2.47486350456948      3.74410397581044      0.24846225407448
  C           2.57643301864706      1.39362402838749      3.38218134588098
  C           2.12182375628635      3.87723039035534     -0.12458693416911
  C          -1.87913650972954     -3.95046773142802      0.23621601820492
  C          -2.27218507984830     -1.39552660831471     -3.42618286620710
  C           2.61923901203439     -3.87152167750572     -0.15834727209144
  C           2.09758480345475     -1.26539698707999     -3.92458465009842
  C           0.58062755674374     -2.63798785640251      3.77726072614601
  C           4.51781026670739      0.16119414547428     -0.40247189397971
  C          -4.24816911405541     -0.38259920961763      0.34045431824481
  C          -0.28340263488098      2.68175718614027     -3.65133567265022
  H          -2.73570311959397     -1.72602451697419     -4.40155057710688
  H           3.24245380251688     -4.81066413397287     -0.20647114930292
  H           3.06901202123281      1.72873343389321      4.34154166044069
  H          -3.15094174513262      4.64235208221034      0.33682243823326
  H           2.56373051978754     -1.56556952189652     -4.90708612986589
  H          -0.38015345627641      3.37912476469915     -4.53270101566330
  H           2.54962805810003      4.90087119619856     -0.33579280236392
  H           5.63195088467233      0.04220697020456     -0.54494675946267
  H          -2.27322802737642     -4.99509806763843      0.40497631167736
  H          -5.37549394877174     -0.35148990537358      0.39469921754408
  H          -2.33223731010563      1.52827187784116      4.96334081940057
  H           0.69076210119158     -3.27764732701162      4.69985506501405
  Al         -5.49208952600620      1.96996906883822      3.30942028803815
  Al         -7.84656912922482      2.52987601229515      1.30649549920116
  H          -8.90861893588391      1.39945929971739      2.07189483449429
  H          -8.67436262343831      3.89574239490754      1.09946678451172
  H          -6.91342015009137      2.79637276270886      2.76660778649362
  H          -5.54761618853899      2.07020373080591      4.91833249662968
  H          -6.04013451666609      0.37541714968294      2.87134471039296
  H          -6.89536867365040      1.79284639942982      0.23782436127840
  Al         -9.19492035321304     -0.32901943306545      2.07896289693768
  H          -8.15190167991952     -0.63288596835063      3.40432626340581
  H         -10.71977705349815     -0.47386388921749      2.58882942152358
  H          -4.25686297021824      2.28443516085335      2.33723564148577
  Al         -6.41303965980406     -1.19804317571293      3.48270043702438
  H          -4.70688423635239     -1.29049180205051      4.17878513482356
  H          -6.44461603440781     -2.41739596086622      2.45177981388670
  H          -8.54801349761120     -0.92288002673698      0.71630749611414
  Al         -5.17068308514777     -1.54935792203132      5.81575062498067
  H          -5.01839696195790     -3.10962351436278      6.18671398901249
  H          -6.83740414043113     -1.36344146340974      5.18332333959647
  H          -4.89365652068517     -0.24215686522588      6.71489790544520
