28
Coordinates from ORCA-job run E -1708.583108010974
  Al          1.59715481121794     -4.05078370682284      0.59069527503786
  Al          1.61590147913019     -4.04080372443258      3.83293408307121
  Al          0.86665035734844     -0.96778765237187      1.10540361464565
  Al         -0.85751184216110     -2.22383029354151      3.38475374951458
  Al         -1.10983705500767      0.60305105470334      2.12585521557080
  Al         -0.80137765361530      0.43713913871476      5.20321781048853
  Al         -2.47172239134992     -1.84469130058859      6.08700568852178
  H           0.79277369768050     -5.13167746297779     -0.25719054666216
  H           3.17569862277403     -3.82540544303848      0.61740043736772
  H           1.63742000702558     -5.48245065696332      4.51044116531105
  H           2.76575494696059     -2.93820637698425      3.87660031321498
  H           1.09934202615589     -4.29265446495388      2.21896557575804
  H           0.85373617594545     -2.54139590620391      0.32121368171911
  H           2.20351858479810     -0.28106755602180      0.60908944045050
  H          -0.67379621033829     -0.53341212681335      0.63491555532929
  H          -1.26493104077576      1.31678077648378      3.88037833677809
  H          -1.77252570252866     -0.77387333470503      2.81021317826566
  H           0.52331324848855      0.65398441745492      2.28125239762543
  H          -2.04077194799908      1.65697540535156      1.39710245514880
  H          -2.32582237992142     -0.15019910187223      5.67046195351069
  H          -4.01430783797681     -2.00505764934042      6.43729078008373
  H          -1.20239265150591     -2.12966122358546      7.01115712701384
  H          -2.16769655281308     -2.45708991949821      4.54992308014921
  H           0.16621826784099     -3.27143403866323      4.32772768332533
  H           0.66165997523382     -1.68887672636425      2.60383608453988
  H          -1.43969628888652     -3.17706310614782      2.24338543083036
  H          -0.14355872777022     -0.96553945187361      4.59949924868888
  H          -0.01783391795017      1.19277043105632      6.35420118470073
