72
Coordinates from ORCA-job run E -3732.515734035307
  Zr         -0.10016174187302      2.15120928813723      1.53533166441870
  Zr          0.08055947439146     -2.00947155375825     -1.40918417405008
  Zr          1.71528107802570     -1.10812437024141      1.51482549306598
  Zr         -1.77184972839892      1.25360652677863     -1.40386520765976
  Zr          1.67178467858078      1.06238115548268     -1.59089561297768
  Zr         -1.75765723246489     -0.90039480539070      1.63896628470736
  O          -1.74500473214644      0.90625561201402      0.64204214836822
  O           1.70492248509649     -0.74068129637821     -0.54409290563878
  O          -0.19588430459876     -1.84305834940610      0.62023752699565
  O           0.15206256066680      1.98084254681321     -0.52861692360223
  O          -0.22703766134761     -0.02219700423290     -1.94293202343651
  O           0.16489442274326      0.16010458033018      2.02073371919258
  O          -1.49819061270890      2.27895752533325      3.27150381997632
  O          -1.42254583876580      3.88096721199964      1.03110938147025
  O           1.38539221328849      2.12147072474442      3.24706990338236
  O           1.60455820321126      3.49388882137466      1.03934961756562
  O          -1.32628294237894     -3.72914546126648     -0.86522493173598
  O          -1.64520243553561     -2.02892632412015     -2.81513542420858
  O           1.52477030463756     -3.69114856100124     -0.98252714724356
  O           1.37155423881142     -2.11978588623708     -3.22263885106582
  O           1.07553371260233     -2.44025926600480      3.20008455297429
  O           2.47820450866062      0.11487403665687      3.25192158481167
  O           2.53373817448534     -3.09745929654101      0.96338881462858
  O           3.78217358740790     -0.38397309027591      1.05316971178682
  O          -3.80485755146405      0.49194930239884     -0.91895223360695
  O          -2.54451137808839      3.26833027040084     -0.84769146082379
  O          -2.56491941673197      0.02626757223073     -3.16603170673467
  O          -1.19233316792624      2.55207481021414     -3.12773873331764
  O           1.04575532073344      2.24782253343746     -3.37382157878349
  O           2.47946082544766      3.12549930068989     -1.03164792154895
  O           2.44885176354570     -0.12557235835169     -3.32155448779775
  O           3.78357564968132      0.87368614961652     -0.84061456021587
  O          -3.94474958576266     -0.49655002573580      1.13021560202642
  O          -2.42150035692167      0.21001952202091      3.45595671429324
  O          -2.65464086183329     -2.71509857027016      0.68327759448252
  O          -1.18669604343353     -2.25922514040490      3.30450636611400
  C          -2.23006563600757      1.40660535139914      3.83259868329665
  C          -2.26123361258289      4.06755106379293      0.09678401164891
  C           2.13021633119089      1.22857011167693      3.75677159503706
  C           2.23687643539606      3.83629113326262     -0.01548299302492
  C          -2.23758910418280     -3.71745322791882      0.01119041108217
  C          -2.30227451004871     -1.16575501445896     -3.49018225714135
  C           2.33393447069324     -3.87188253479625     -0.02161353118977
  C           2.19604547856183     -1.29819180746613     -3.73154135783656
  C          -0.06354812126545     -2.72061074584456      3.68006678941177
  C           4.34099002332214      0.17583865566568      0.05989506855089
  C          -4.42771204373506      0.09333488269082      0.12270309920356
  C          -0.07908760478440      2.73059054979167     -3.71012267959832
  H          -2.70679894343953     -1.52165408164155     -4.48244211823365
  H           2.94264185538450     -4.82062989620774     -0.04400457217032
  H           2.54804171028349      1.45711134731630      4.78105126521797
  H          -2.81483769107745      5.05036668808480      0.10669760433048
  H           2.76098876897891     -1.64992005720561     -4.64199356194428
  H          -0.09025450230501      3.38923612660304     -4.62563285157456
  H           2.63996294722947      4.89105603845867     -0.02910448732981
  H           5.46107590327510      0.05869304647050     -0.01648703070943
  H          -2.75437853660606     -4.70050024974369      0.21523760570041
  H          -5.54152687016818      0.27820163236901      0.13126850845084
  H          -2.76927776803995      1.73101747007574      4.76867836642418
  H          -0.08361482253933     -3.45793566508896      4.53334829738103
  Al          0.45441082575211     -7.29037006476505     -1.18042919868490
  Al          2.21569167214223     -5.95600519254334     -3.54885859425519
  H           0.63955235474172     -5.28255144846413     -3.87023978342768
  H           3.29112497033919     -4.76790113010225     -3.38820416241324
  H           1.84263556350472     -6.59361388067405     -1.96659194862485
  H           0.38741658614088     -6.63344033322770      0.29230240153788
  H          -0.80357554606469     -6.55310418228641     -2.12120986588541
  H           2.40586299364794     -7.24516286906425     -4.49928799481507
  Al         -0.90464785106414     -6.09852822027085     -3.80119303277260
  H          -0.78147039036764     -7.46161061811604     -4.65297608511992
  H          -2.03789830213675     -4.96527457036854     -3.94012750460179
  H           0.46350579754821     -8.86536289489582     -1.52119287191531
