80
Coordinates from ORCA-job run E -179.367815889770
  Zr          1.73555071750257      0.61720616386938      1.06889277293647
  Zr          0.30715999849939     -3.26787643092567     -2.69637808643378
  Zr          4.59799090102252     -1.67936515116361      1.33291304505294
  Zr         -0.25371889895222      0.34805218472294     -1.74489594796773
  Zr          3.58107150936145      1.00738261050629     -1.79717565940677
  Zr         -0.68906954198864     -2.19916749256360      0.75467638121000
  O          -0.48508562837493     -0.45909829833905     -0.07388579054509
  O           4.55571650326202     -0.67009438186100     -0.81815467511138
  O           0.70767049898145     -2.60880606548907     -0.83972159817435
  O           2.13488045693719      0.44137569706082     -0.74872175225312
  O           1.11739673780228     -0.68339737628508     -2.86611184609696
  O           2.60648162528622     -1.11884809431397      1.14550807958481
  O          -0.08653460717373      1.59592429882149      1.65312805838973
  O           0.20429576311321      2.38388806369667     -0.89797841040155
  O           2.47684407071903      0.99395460185752      3.04891026293285
  O           2.19045382581433      2.77523704204650      1.00333819528897
  O          -0.44474545763271     -5.02886058856375     -1.26336480829463
  O          -0.81467221496032     -1.77294225835220     -4.16833677548982
  O           1.38268906977133     -3.36452560376778      1.54647692203154
  O           2.02710698324386     -2.47554921839228     -3.87520506421438
  O          -0.70382583330946     -2.89383270523343      2.83690926875243
  O           4.18868105525513     -0.44187105299416      3.17394959190419
  O           3.28505759615718     -3.10851760565301      2.72232613605678
  O           6.11081610821078     -0.06209699419364      1.22662018068357
  O          -1.69107301833622     -2.64971093547393     -1.87021252051398
  O          -1.85931886282081      1.74492822035421     -1.17392573603661
  O          -1.84344240881885     -0.21280577673817     -2.93655379850258
  O          -0.09927848697036      1.73119459413186     -3.47381921777676
  O           2.11309144726951      1.90125179890601     -3.28041772719350
  O           3.32837736370581      2.98083884777805     -0.91230095457931
  O           3.39804124523111     -0.74744305036321     -3.19043413856096
  O           4.33289477483109      1.21011198508313      0.86787774965774
  O          -2.77130450017076     -2.28288322920237      0.00367331926819
  O           0.27266313857241     -0.38725856097290      2.51253476478010
  O          -1.22959301021487     -4.21956353509836      0.67293467607054
  O          -2.25474422460846     -1.46899468717879      2.30099209481832
  C          -0.46149628696555      0.62727714901555      2.33234288449990
  C          -1.03326046958304      2.59511614791763     -0.81119738000018
  C           3.35804491472063      0.35159941524434      3.67712216995895
  C           2.68486426404923      3.42671100840156      0.05869741089672
  C          -0.82869042811366     -5.15602362872165     -0.08725063193474
  C          -1.63646618771042     -0.86369377690876     -4.01440156781408
  C           2.19729685984878     -3.67428903781541      2.47674797022453
  C           2.10719911847264     -1.09757040728652     -3.71271599747461
  C          -1.73836897475690     -2.25465439021170      3.12605962555292
  C           5.52812614103419      1.05581365666155      1.20419689516107
  C          -2.74836097887355     -2.50402766598313     -1.22142011999206
  C           1.01557177997466      2.18221551785357     -3.78254327030992
  H          -2.31549633713563     -0.64382079207206     -4.85279503295001
  H           1.89740037082667     -4.50093587525464      3.13176601791479
  H           3.41518995722386      0.49698445017519      4.78471072898999
  H          -1.38675620277563      3.56962353027343     -0.38598273918251
  H           2.04380962348908     -0.60114286605433     -4.70704746997110
  H           1.01273408897803      2.86706833903381     -4.67846720581721
  H           2.50572868672779      4.52928048213130      0.09436859521153
  H           6.12246717828043      1.93622310785613      1.51965037834025
  H          -0.81917231490422     -6.18297435831471      0.34803729287034
  H          -3.71238375333518     -2.60661628645263     -1.75864772051202
  H          -1.47451077473227      0.62876063860913      2.77657167487136
  H          -2.22085527415489     -2.37838276798222      4.11721409189072
  Al          4.47129249422910     -1.83078730363723     -2.17658057060846
  H           4.89659921081713      1.68581694720891     -2.84313668878306
  H           4.07773487151834     -5.04140858138104     -2.58243778672594
  H           4.51716279967185     -3.07072296622824     -3.58385612296267
  Al          6.24291654688735     -0.30212373377991     -0.94442838469196
  H           7.00534738109935     -1.58994806387197     -0.29656919888364
  H           6.67659019462859      1.24366838320150     -0.93335875023213
  H           3.80415324505513     -2.92625865067295      0.29131221569058
  Al          3.02338088503642     -3.93920382169512     -3.65561763734971
  H          -0.40505296256710     -4.38637081657453     -3.94272414481959
  H           5.94613780713206     -2.54907777314946      2.24949518704366
  H           2.46040591019669     -4.53134337436195     -5.01780315359392
  Al          2.11243136811299     -2.23800860069235     -0.03942630951975
  H           2.50494520115592     -4.47418190354331     -0.39018958409797
  H           4.89641728971593     -4.77752908637118      0.10111124470516
  H           5.30700471726714     -3.01742476618332     -1.35727080938163
  Al          3.96620431819021     -4.25277530304690     -1.15523521715233
  H           3.04471925710982     -2.59691393410491     -1.59619985539100
  H           5.93626184956715     -0.96907413692866     -2.77012003052926
  H           1.85902791837331     -4.72206112001872     -2.60569799500692
