76
Coordinates from ORCA-job run E -3976.497870220729
  Zr         -0.26777179483161      2.08204145983112      1.46270534921239
  Zr          0.20042355581898     -2.03792110988231     -1.51728324327022
  Zr          1.79006524902449     -1.00109634104419      1.37181049649898
  Zr         -1.85973410053073      1.10583549044911     -1.47877631976249
  Zr          1.62269239291725      1.14273359701460     -1.66647354319398
  Zr         -1.70851342455083     -1.07520630222217      1.55264764754349
  O          -1.78986172420775      0.73517599273062      0.55018723082909
  O           1.72761407169840     -0.65655525709244     -0.66742638402588
  O          -0.08439376441167     -1.87028637527342      0.51490772067533
  O           0.05007052634845      1.95564457126390     -0.59691404491915
  O          -0.25891564484820     -0.07294624942073     -2.05107316846213
  O           0.15220776427755      0.12992540896310      1.96712437190833
  O          -1.66072462185412      2.11301636943382      3.21612326507469
  O          -1.68774445723219      3.72307267597992      0.98585386528081
  O           1.18135657924361      2.21262628706202      3.23620120696187
  O           1.35333230479984      3.57789900541961      1.02376055665630
  O          -1.11120725953574     -3.83763815962264     -0.95571195283391
  O          -1.52894906198972     -2.20550810697471     -2.93567069151340
  O           1.72222556104781     -3.61879364982236     -1.07564966763192
  O           1.49532644012787     -2.04990335906636     -3.32925005136301
  O           1.30491946666308     -2.28345997837025      3.12896297130893
  O           2.58543283169017      0.46331857267243      2.84366877927791
  O           2.69040946322974     -2.97942198757415      0.87457052760216
  O           3.89378073156614     -0.42135923228385      0.79756562958212
  O          -3.96013182847738      0.50387622229744     -0.90833032445668
  O          -2.68433601125224      3.12655162769215     -0.96565651176213
  O          -2.70030262660921     -0.26017600367153     -3.06071529448295
  O          -1.36077623923176      2.38985932470821     -3.23650380699888
  O           0.90487437821351      2.34322554786633     -3.39984112172899
  O           2.40703682106748      3.12169263084130     -0.94049103964628
  O           2.39017228334015      0.03469594198843     -3.45403251373949
  O           3.80282868048792      0.91240146325305     -1.05382128401167
  O          -3.87661984732873     -0.80472808079771      0.96261691510152
  O          -2.48144410950667     -0.00218667061844      3.33644802436121
  O          -2.45286047381742     -2.97072569178681      0.67068113543950
  O          -0.96356781234991     -2.32022915103559      3.24557459261407
  C          -2.34930194988580      1.19152059106236      3.74912267234951
  C          -2.47045331878526      3.91423216977170      0.00285775818950
  C           2.10930831444802      1.41687021368363      3.54963548942035
  C           2.05968798409507      3.88254858708440      0.01202616762859
  C          -1.98617300261655     -3.91840010550801     -0.04891314079113
  C          -2.32443419371822     -1.38794666278938     -3.49793757105783
  C           2.52419433571341     -3.76878181994262     -0.10519051000008
  C           2.20609532026571     -1.14729244495214     -3.87224181224560
  C           0.19902036684160     -2.64149041057085      3.63914577614147
  C           4.39662054790629      0.18432120461671     -0.20065398647989
  C          -4.46669381502649     -0.09082855597142      0.09525079396441
  C          -0.25496547364932      2.69221801619588     -3.77874198500778
  H          -2.76093779564202     -1.71560324367757     -4.48618123208182
  H           3.15720836552603     -4.70196731330521     -0.11585606622887
  H           2.58696615818524      1.57112257244306      4.56055088959317
  H          -3.03588876294640      4.89023490418841     -0.00534818947274
  H           2.73076385321043     -1.43076526008626     -4.82978830615914
  H          -0.30731728621725      3.34315556617392     -4.69862196647582
  H           2.43889483157222      4.94503382077799     -0.03129929640846
  H           5.51224736211211      0.07212470717772     -0.33524351759684
  H          -2.42415069362381     -4.94174037455613      0.14092234146245
  H          -5.58396159265243      0.01796291701190      0.21963505422634
  H          -2.90850252036073      1.46015449108814      4.69110869232348
  H           0.25437136611402     -3.31892339566794      4.53891837371120
  Al          4.18373748758301     -4.54615920291852      3.91097177699165
  Al          6.31685853674890     -3.01382646755842      1.68211891019858
  H           6.28980317596961     -1.51504905468753      2.54043547899648
  H           7.75379317349953     -3.66303688352985      2.02587061275318
  H           5.18391886471249     -3.86261907218296      2.67898247076262
  H           5.16661138336007     -5.47569207793052      4.79092999376906
  H           3.98832900746355     -3.10528994914255      4.85138343664689
  H           5.73394817346982     -2.84974839161949      0.19171940749280
  Al          6.20112706781106     -0.13570055291604      3.58514874044997
  H           4.96746615478614     -0.72355637392650      4.64524012309759
  H           7.56530282752590     -0.20773253270228      4.44504142002629
  H           2.77022693784294     -5.02016710680173      3.30855608187281
  Al          3.96631566501014     -1.61772525555493      5.72804242640947
  H           4.83228669592340     -1.88793080268251      7.06104057860245
  H           2.49088167441319     -0.97538486550755      5.71087053814865
  H           5.67722186667017      1.16264184883824      2.79595028322667
