24
Coordinates from ORCA-job run E -1463.394109334960
  Al         -0.04305791617403      1.17396550702607      3.09418215966709
  Al          0.31599542452852     -0.28655163566103      0.38885652747287
  H           1.34838675889098     -1.53594097148122      0.85040390626072
  H          -1.16711255293099     -0.76636362607928      0.62759728501260
  H           0.76063054715981      0.69825036688219      1.68184976833237
  H          -1.42009009623615      1.82017255122469      2.68034532728638
  H          -0.38371958714655     -0.36010786971986      3.66711767368130
  H           0.91977770826265      0.35732257940407     -0.91223658408830
  Al          1.08674396688204     -3.09443039639670      1.45643358543046
  H           0.21575389642030     -2.65040760739264      2.81546041502223
  H           0.07870155918058     -3.83130212065467      0.49383629214788
  H           1.06371150184457      1.83707376930153      3.99811489059046
  Al          0.63842365042469     -1.65457702713590      4.15254004017201
  H          -0.91957688839864     -2.27815615966028      4.69565062502299
  H           2.05560024259829     -1.11519410947039      3.69451157158136
  H           2.50777008539835     -3.61640131477610      1.89217048368313
  Al         -1.78510743644215     -2.78974623844683      6.01263713525075
  H          -2.28648687531003     -4.26535751045613      5.79324977718554
  H          -2.58182954519111     -1.58267581996726      6.63416738209447
  Al          1.13287537740968     -2.43060958824061      6.60240960255529
  H           2.22703975850600     -2.55395798444605      7.70997629690147
  H           0.73712698799483     -0.98928954773624      5.89911340985310
  H           1.29355378978034     -3.12396269802936      5.11313975379849
  H          -0.37875035745202     -2.96637254808771      7.02530267508459
