4
Coordinates from ORCA-job run E -244.054709565951
  Al         -1.36506737925204      0.62239601581764     -0.20851780132067
  H          -0.53852992848741      0.41474289350177      1.14064190529005
  H          -1.29763380264471      2.01838414983798     -0.97872591402032
  H          -2.25921888961584     -0.56587305915738     -0.78732818994907
