84
Coordinates from ORCA-job run E -4464.496961359172
  Zr         -0.32752379520562      2.53029668888554      1.21021833682118
  Zr          0.41232929997242     -1.97987692049513     -1.09911310878634
  Zr          1.92007078395294     -0.45232452971304      1.63210055479774
  Zr         -1.82279121172503      0.97965081583802     -1.52997350242287
  Zr          1.64719085430907      1.21888742091648     -1.69602755543437
  Zr         -1.55538616565750     -0.66369531845768      1.80565708546865
  O          -1.77524808816370      0.96600094460753      0.55445191229089
  O           1.88006482868449     -0.44031957823898     -0.43432259237528
  O           0.12387024620928     -1.54448988392085      0.91176781392938
  O          -0.01228224845708      2.06041826062612     -0.79272836132105
  O          -0.11515934561556     -0.14913200086531     -1.88195939901927
  O           0.22694947799458      0.68162409701823      2.00556714743113
  O          -1.66821567786639      2.71316717553027      2.97462659924700
  O          -1.90122072616170      3.93434435763864      0.49446415168503
  O           1.18661526627313      3.02863087698100      2.82790924142571
  O           1.08849749106268      4.08813000503390      0.45280422013353
  O          -0.81558999089883     -3.70536616851980     -0.31011707824530
  O          -1.23477618615546     -2.41367941777238     -2.55015640876669
  O           2.04784778180736     -3.41044082799091     -0.39154602534369
  O           1.77210610803736     -2.18976045089751     -2.83726038087486
  O           1.41856967387340     -1.54298215767768      3.49770706316062
  O           2.64902838095631      1.28859748720679      2.78627067261662
  O           3.03765192620351     -2.54395482659358      1.45072816536994
  O           4.04994636509355      0.07629523792914      0.94305848760993
  O          -3.72053350088248     -0.00382215963842     -0.90632330468654
  O          -2.88701569785040      2.91842013067584     -1.27481030657144
  O          -2.42120496370894     -0.55019090771977     -3.10751118958095
  O          -1.37119253828198      2.08866883816901     -3.40821761104923
  O           0.88413780530371      2.03823270478743     -3.61782925258274
  O           2.16097187987551      3.41197152833949     -1.43784513724470
  O           2.56478162373187     -0.10669080693132     -3.24255108581729
  O           3.70883292733209      1.38530214973717     -0.88494119347167
  O          -3.76757531083115     -0.62988981069956      1.27947003763052
  O          -2.34348608123647      0.60381992088638      3.45429765267448
  O          -2.20780182417081     -2.72060073423537      1.19210902781346
  O          -0.83855220746914     -1.67378035687650      3.64689504589685
  C          -2.26702199341556      1.84948448150428      3.68683300063270
  C          -2.75738632506843      3.86601298397206     -0.44002275993282
  C           2.15783366831488      2.36053990526366      3.27678698931032
  C           1.75948646585755      4.28316088169862     -0.61173082535916
  C          -1.69003964107097     -3.72531835067243      0.60458865878116
  C          -2.00505504322745     -1.72839698027690     -3.30223566460063
  C           2.87872279261307     -3.45111802988505      0.53960856702927
  C           2.48007189085844     -1.34916474110105     -3.47674102477583
  C           0.33490664647525     -1.91098886001347      4.05629731252558
  C           4.43572684934739      0.72598516789993     -0.07023761637624
  C          -4.30875873866266     -0.28107244831226      0.19302237919246
  C          -0.28532923760306      2.32586128677066     -4.01954898682963
  H          -2.36524438074512     -2.24215013248074     -4.24075266154996
  H           3.56053971277635     -4.34490241653656      0.60827518520790
  H           2.66582153538757      2.75481422076915      4.20393107559879
  H          -3.47032207529034      4.73347916299003     -0.53817415147772
  H           3.09018950180454     -1.75027381284792     -4.33529404544659
  H          -0.36496268545371      2.84287955490272     -5.01784599954228
  H           2.04102117641867      5.35359633459661     -0.83346190216388
  H           5.54590121933623      0.73798070824945     -0.27199870626978
  H          -2.06562672731800     -4.73978319324972      0.92593197135836
  H          -5.43581764135147     -0.22197523431239      0.18416104286326
  H          -2.78605475032112      2.22777367531172      4.61311423906496
  H           0.43791822272477     -2.51886010231128      4.99732419153298
  Al          5.62916421484005     -1.63520023335537      8.26810767559643
  Al          2.34969486456311     -2.39188419613448      8.22138799951475
  H           1.60688080276873     -1.22267598392734      7.20703996631463
  H           2.53592446797495     -3.69415471007035      7.24826533689457
  H           3.87151928257826     -1.70560086797474      8.51929416078260
  H           6.16812050086902     -3.12620706775457      8.57570908131128
  H           5.54549864622803     -1.35588707898579      6.60863100500774
  H           1.53008415395272     -2.47493936916226      9.61088525825212
  Al          2.07104030489560      0.40045942002939      6.64848133764521
  H           3.41021216682554     -0.05277376618163      5.73177255471912
  H           0.83620544663946      0.77380227715168      5.66407128785756
  H           6.02774343664326     -0.28214399628889      9.05692895123640
  Al          4.82073578398346     -0.98963606146029      4.98676857786038
  H           3.63479366668307     -2.32573897824933      5.44322971917083
  H           5.69983931482961      0.33202009404881      4.66835649234076
  H           2.51890429624144      1.21314479578683      7.97146148974751
  Al          3.40273992579710     -4.01171324502293      5.28392470327537
  H           1.90546140352486     -4.50658273810092      4.91352783410461
  H           4.60718810748640     -4.83593691008624      5.97646271942315
  Al          4.70419579283391     -2.56748776315602      2.78820570582319
  H           5.82083578476449     -2.82335883154416      1.64916555316807
  H           5.76555086278367     -2.30252122995507      4.24239426404718
  H           3.96870119549400     -1.12227185330576      3.34613942118471
  H           4.03640675223517     -3.93760712503959      3.54619549061478
