64
Coordinates from ORCA-job run E -3244.519533547789
  Zr         -0.30730475766378      1.98726123388206      1.52957090509365
  Zr          0.24669060377852     -2.08897361478463     -1.52157411289835
  Zr          1.76230057295125     -1.11269232069669      1.46070273738231
  Zr         -1.80893694744195      1.07008711599263     -1.46070902903728
  Zr          1.65517308342471      1.09813096102932     -1.56341213651601
  Zr         -1.72980288579586     -1.18302510683389      1.52835648653884
  O          -1.79426239760413      0.67577445127781      0.58388461176136
  O           1.75561223784876     -0.74127705300384     -0.59113372861753
  O          -0.09345842982860     -1.94749605148010      0.51547240360736
  O           0.04529164496224      1.88949496315923     -0.52872286549889
  O          -0.19128846445488     -0.10819536420599     -2.00837902246236
  O           0.10828235151573      0.01991845872691      2.00465787005148
  O          -1.79992993597584      1.96375696239312      3.21120203766073
  O          -1.77485251247893      3.61723223357927      1.05301065883593
  O           1.10077236370382      2.07893032818266      3.32188210352151
  O           1.28359750534517      3.50753681031154      1.13566669346108
  O          -1.10992800067493     -3.85387650709092     -1.00667688345015
  O          -1.39833173344005     -2.24062137636893     -3.03828993546376
  O           1.76271136674174     -3.66489094181636     -1.05710160182299
  O           1.59450353711459     -2.06428255500586     -3.28879917894000
  O           1.21589776240227     -2.40017327607074      3.19480841070273
  O           2.50821706264262      0.31370030294075      3.02098468047126
  O           2.61797672850497     -3.10722473398050      0.96722141673710
  O           3.87917041503807     -0.47361482813914      0.96074683261884
  O          -3.93653027344171      0.60466555260389     -0.86520190614707
  O          -2.47651921339479      3.16865038280664     -1.05586742770218
  O          -2.67547527697738     -0.36482299717798     -2.94418905071721
  O          -1.26874134541432      2.24839346444046     -3.28907905064518
  O           0.99662672104878      2.31357741943675     -3.30416726063897
  O           2.36667828802155      3.12253950134060     -0.82821409833467
  O           2.48681452604342      0.01862716551121     -3.34274378805312
  O           3.77109932898211      0.93601933626924     -0.82475952151148
  O          -3.86695231414597     -0.86420471819076      0.87383996816287
  O          -2.43631445393443     -0.20473083645553      3.39768317251806
  O          -2.47902163962520     -3.08766114965397      0.64350973921175
  O          -1.04880857522759     -2.52255165539862      3.18881417949759
  C          -2.37615526448153      0.99007898817565      3.80584744153256
  C          -2.34937811665137      3.92118319279319     -0.05150179091680
  C           2.01798942346172      1.28573638086805      3.68413445656966
  C           2.00563553199307      3.84935181148391      0.14226265520148
  C          -1.99489700394244     -3.99248762376699     -0.11421017605904
  C          -2.27277708284192     -1.43878025071231     -3.48814625647163
  C           2.51175587980607     -3.85553242766473     -0.05251980142677
  C           2.34156800082854     -1.16196379337730     -3.77962228177862
  C           0.09993191948335     -2.80909613311980      3.64266366111856
  C           4.38295951212769      0.20199865038153      0.01456719028779
  C          -4.44296226328179     -0.01539793757197      0.12094147996505
  C          -0.14958046666174      2.58876837802124     -3.77749235779140
  H          -2.76065448418452     -1.72240094281887     -4.46536729093299
  H           3.14888265773391     -4.78604607031501     -0.06406278994914
  H           2.46811339107802      1.46719317967391      4.70375755724788
  H          -2.77901731050530      4.95785328048586     -0.12846874779869
  H           2.93321186517848     -1.44099726512825     -4.69828091573643
  H          -0.17152445014571      3.19746960287994     -4.72632902569902
  H           2.37842639602815      4.91492051085416      0.14222461235065
  H           5.50697172912692      0.16331297220297     -0.08641132168478
  H          -2.42043446718731     -5.02974401912459      0.01971001706684
  H          -5.52668294578025      0.20326170421575      0.34599450736026
  H          -2.87581423851362      1.22017095563369      4.78745944116217
  H           0.13596143214266     -3.49766506908781      4.53500243049930
  Al         -4.32175556376743      3.40631676144706      2.58395709251388
  H          -4.76476203640400      3.78555495289399      1.06880221256206
  H          -3.90678894234470      4.57932863961031      3.62681012075295
  H          -4.82115013103799      1.95066781137300      3.10371401120320
