76
Coordinates from ORCA-job run E -3976.498002832729
  Zr         -0.00562921099963      1.90856832685361      1.47921338379342
  Zr          0.07625862212512     -2.13835919899352     -1.60261344625631
  Zr          1.80776934668252     -1.31824633806886      1.32756419822090
  Zr         -1.73101137308634      1.12136838880593     -1.44977927145660
  Zr          1.74121376006746      0.90276864838966     -1.69270018493969
  Zr         -1.66911631696777     -1.11776273174638      1.56896944389897
  O          -1.65440395173815      0.70543107123536      0.58546353076770
  O           1.73677159747268     -0.91448227845776     -0.70817703120282
  O          -0.17148200139572     -2.02076596217160      0.44508680783674
  O           0.25174360113566      1.81417602330870     -0.57154359704099
  O          -0.20395612772496     -0.13406661330481     -2.04970138516623
  O           0.27019673081010     -0.08710961151981      1.93863157862611
  O          -1.34763690944018      2.01187027077365      3.26573058694408
  O          -1.33707196568396      3.65158669524643      1.08320673019097
  O           1.49496075920418      1.87740229635998      3.19377429639931
  O           1.64707484713218      3.35473008863414      1.06159046949120
  O          -1.52968942917822     -3.63999702041880     -1.14108207926555
  O          -1.50999177411305     -2.08323681163484     -3.22937258151851
  O           1.44771351589485     -3.85629218615178     -1.20077153037517
  O           1.40324801463159     -2.22017171087248     -3.39741918817149
  O           1.24099001810936     -2.66550289831279      3.02527787673126
  O           2.63294526352317     -0.09993064116893      3.05019372116186
  O           2.55152933808768     -3.32658202449893      0.71472297361010
  O           3.84171434135456     -0.58709213556072      0.80920761934877
  O          -3.77638346345194      0.42311651418677     -0.91785232692998
  O          -2.45678779020754      3.13813293168431     -0.82342081856417
  O          -2.56834016328350     -0.06006880575716     -3.16860196834861
  O          -1.14972138625411      2.48474858828109     -3.12731822398860
  O           1.09960879330364      2.25103778072985     -3.34208867009822
  O           2.69700824834677      2.77260293580007     -0.86947586500577
  O           2.38430511856500     -0.17647180095628     -3.53536201099556
  O           3.93678024409599      0.49241494885293     -1.19611762299020
  O          -3.85555013780276     -0.69805289544849      1.06545882892057
  O          -2.32335765194955     -0.03215960548531      3.40449602326013
  O          -2.61773614770240     -2.97550651029783      0.74408727959480
  O          -1.01316577892699     -2.45372318929610      3.22284897694704
  C          -2.09338174346165      1.14558402620885      3.81625286338701
  C          -2.17529520057355      3.88857592575204      0.15977932453322
  C           2.28887882030128      0.98039417600747      3.62042274453756
  C           2.39855530473443      3.57944357308237      0.06127671171410
  C          -2.30499357991060     -3.81872932718343     -0.15377435063848
  C          -2.25469768540477     -1.16994363819809     -3.70242870312312
  C           2.28230504386324     -4.07919325424664     -0.27190204208139
  C           2.15094840940556     -1.35437552548031     -3.94605980577469
  C           0.12087125481139     -2.90954861284559      3.56766800022080
  C           4.43881073061080     -0.15149801760106     -0.23097832204762
  C          -4.36460535865858     -0.03300384669079      0.11801195076886
  C          -0.02933510326881      2.73325565112239     -3.66663943095016
  H          -2.70859133747243     -1.37457820563352     -4.71616485537597
  H           2.84791920705391     -5.05364513080689     -0.32784040605197
  H           2.75733269378448      1.17515197070256      4.62977628449067
  H          -2.72964652426726      4.86865870292188      0.21827558724572
  H           2.66339811269376     -1.66494758483018     -4.90167680209096
  H          -0.03587970510189      3.46082627640056     -4.52850269808592
  H           2.86940396936328      4.60356819145715      0.00832705530941
  H           5.54894535498785     -0.35166987588517     -0.28155147590389
  H          -2.79049417371788     -4.83482780605936     -0.07517320814072
  H          -5.47393461973974      0.16738606141940      0.18287508244432
  H          -2.60697732090196      1.45407087975711      4.77143488173192
  H           0.13238985525770     -3.60896971171928      4.45254761380678
  Al          0.57966562989272      6.77584943654417      2.12619182497932
  Al         -1.95043684139864      5.61900912463957      4.16855526592134
  H          -0.88296607558337      4.65223270569526      5.12411613873400
  H          -2.31685977074706      6.88744272905292      5.09706956623015
  H          -0.75660485520506      6.20901451022991      3.06299917866514
  H           0.75278283365681      8.33127414929084      2.51711782195325
  H           1.81446919813934      5.93431463519681      2.98875643511937
  H          -3.04262069744130      4.71603183783702      3.40852044280431
  Al          0.36107239344981      3.86938327302356      6.03805267600785
  H           1.70230733740821      4.35574658123404      5.06648455722970
  H           0.48649501441813      4.74230484917563      7.38991269929203
  H           0.48685536641054      6.22462797983113      0.61713093544372
  Al          2.89106610495806      5.10542710355415      4.06019318918090
  H           3.52067368704407      6.27218680615802      4.98127791781023
  H           3.75413484247133      4.01361075347198      3.25676925481951
  H           0.16522337429737      2.27274947112519      6.01052877504729
