76
-11.9555535585
Zr -0.42990098049015523785 1.85733810330985815717 1.60667977184179822103
Zr 0.35781265532384021189 -2.22919637649765745024 -1.29213103945532670203
Zr 1.48266454197486474698 -1.44754492663213407688 1.83904552245967400914
Zr -1.53323447708916282828 1.30179636535468690184 -1.50849204287502258737
Zr 1.85156419466966060128 0.76336508003560044067 -1.50816599137265705544
Zr -1.92259368633140215188 -1.22039809215411088061 1.62527159232893647633
O  -1.47675975370288714572 0.44582313076943286267 0.39149208924584544267
O  1.41579481588626210353 -0.76547128388970142598 -0.16058368754586332949
O  -0.19778891578226551196 -2.11244254608966208764 0.78273684434379808827
O  0.24590328560371241262 1.78512509755180004412 -0.48055696074148435137
O  0.00112408201189736958 -0.15882833285499775577 -1.92964047840600483319
O  -0.18269050828041988321 -0.19679317466404722126 2.18225328361225523466
O  -2.12436938512029360737 1.92294369536748965821 2.63855433591462995579
O  -1.04647411966545678119 3.61701922404792686194 0.96201382679590308200
O  0.44366291326581835941 1.70641719003082203976 3.47278422200264280661
O  1.41172010316228591087 2.73282494992160440717 1.46623005449138044121
O  -0.81373219212437908343 -3.83923953384876792683 -0.73820671020482686586
O  -1.32028856496987745395 -2.15934165493850960260 -2.45754394449536262002
O  1.86498055416972730036 -3.42034701761047266189 -0.80203720116092447334
O  1.26746978940548027381 -2.22596643924622261679 -3.04420694177477857423
O  0.72268588401609257232 -2.23063678304340218261 3.50211585627226185125
O  2.07168880967406776605 0.04546273942992831024 3.10132243371039173496
O  2.02746245715655071251 -3.32961453075393487566 1.51726938922791432240
O  3.39982063015194002631 -1.14869460705180115312 1.17995888690802241960
O  -3.45022000754016300306 1.22480716315699855734 -0.73277279692807495426
O  -1.82713103714966362823 3.23706243465394427616 -1.20013715858004044179
O  -2.41802934540088942938 -0.10047061734223416973 -2.61338208805352811837
O  -0.79102475708629471640 1.97360490708294666895 -3.22710095962093124200
O  1.46638248019141870238 2.28290122765479175371 -2.73259191200194928584
O  2.74467457356912314381 2.11426823940361474641 -0.35133555959826390236
O  2.28813998394300632810 -0.13883966494170993378 -3.21821353725595526996
O  3.60748599665258229408 -0.17128900969824778500 -0.94774928209271036561
O  -3.67727841751242445767 -0.46024340761903204111 0.89034251477515669038
O  -2.58456194643396663935 -0.27616293207364084328 3.24790000840941317506
O  -2.53771451189278929306 -2.78685413457229325118 0.47232312831382705642
O  -1.50704879390406332185 -2.64826802296582952678 2.94824680108162251457
C  -2.67092183325364329605 1.01350043161831093741 3.39292163041827832259
C  -1.58145311947775590866 3.98111412094766681236 -0.16422635462391574346
C  1.50515208834465719079 1.01413920883843489129 3.76154263221934259676
C  2.46610701392347975158 2.79077412906445232466 0.71610104039630828598
C  -1.96760320525074305920 -3.78308535687362290645 -0.14233776688328361737
C  -2.22316393967601522164 -1.34607046610381408946 -2.90647402080534167368
C  2.21696947311679171122 -3.89000555727988706067 0.35939815237259520320
C  1.98923671656578715528 -1.32856167455385576481 -3.64487956038254212743
C  -0.44662557335202568431 -2.76818187634425738608 3.69273130546596339840
C  4.04741247292002270797 -0.72386760798639859793 0.13944789503744409176
C  -4.10810652414617205608 0.44064049264798543781 0.06301324724920301379
C  0.39208959658331216103 2.47189934185591164706 -3.44289184979296436495
H  -2.92036065709660208611 -1.77169586607073337170 -3.62146871746581755502
H  2.73528672775002590356 -4.85073191492792599178 0.36158570386797034280
H  2.00282677558173860533 1.29800486977743734229 4.68633502586879036045
H  -1.85358033568073277131 5.03323393555087772455 -0.25060351746128589623
H  2.38753233472525971948 -1.60503176383813772610 -4.62128835175479846242
H  0.49474014749749922748 3.11916504670271654831 -4.31617677732856197537
H  3.22685148328156001796 3.49735842158871790275 1.03294980929019319937
H  5.12285416506962221206 -0.86161532756802894362 0.18011831840532943616
H  -2.54877862833256774167 -4.70234887603512952126 -0.17367794105295736307
H  -5.18530160720518917827 0.56740889790971527074 0.04401893082796043410
H  -3.27723700757843960929 1.37047676847227961616 4.22776594596015353744
H  -0.54999151173117089009 -3.39259946143704649302 4.58163714998827042990
Al 2.88092970203464071588 -1.75398966398404110301 5.91660000866260027408
Al 2.93987392051500684431 -4.66736632225804015661 4.33060754544544224132
H  4.14143771282102779452 -4.22295519378337580463 3.26035545431883777567
H  3.44212368376872612785 -5.85269547196706785286 5.27320934797450302511
H  2.75695070199122227450 -3.26279078441557324197 5.21366486486553259994
H  3.47598848609992083780 -1.88970394343526892911 7.39083020933654655238
H  3.97308700285759375248 -0.93761966729266876808 4.95298883440858617178
H  1.59490631575313157597 -5.07232625168425954598 3.57145893895976218602
Al 5.39207172517609301110 -3.47902342681051157669 2.44289442637049436513
H  5.39788177225292553629 -1.91916553730301764347 3.03763113164164044733
H  6.77079980261486902293 -4.19346272671249575836 2.80954769328489373237
H  1.45198978188849214810 -1.04332599492306599132 5.94951276034724063635
Al 5.16652340056828407455 -0.49210579453675745709 3.87301867871978044988
H  6.49469733149300942898 -0.07221428056554826669 4.65117096276664998555
H  4.67033061645202529633 0.68082430820594708187 2.90999052494159071713
H  5.14431751595835784485 -3.51638109788152197765 0.86659488761623570952
