64
Coordinates from ORCA-job run E -3244.552913859022
  Zr         -0.00510266379201      2.02391796644828      1.35516509043106
  Zr          0.12046788265336     -2.17513143613775     -1.55610917786593
  Zr          1.73716214211847     -1.31098972722176      1.36763666838029
  Zr         -1.65062064291318      1.11818349681953     -1.55808336889062
  Zr          1.84633542909264      0.87851061730744     -1.70142418988313
  Zr         -1.69609450847656     -1.00056589619320      1.55992509177832
  O          -1.61632966890654      0.78995944284575      0.49586520253194
  O           1.79988468512689     -0.96837071667603     -0.69636463728735
  O          -0.17336120643698     -1.94909472935120      0.49406756788056
  O           0.34781663292315      1.85480436618183     -0.66770743769583
  O          -0.11850227827582     -0.16843174432065     -2.06513433392801
  O           0.24955891919577      0.02565726166976      1.93917589080311
  O          -1.18452353009465      2.12962859221033      3.24947057457094
  O          -1.50787042889194      3.64101333968401      1.00552249035641
  O           1.83743676305643      2.05813354360687      2.57005031304728
  O           1.21376813302649      3.93987153290482      0.83563747158736
  O          -1.47268447890213     -3.67409328817369     -1.01083484263559
  O          -1.48191764934353     -2.17571215795474     -3.13193442557797
  O           1.42877816295653     -3.90838211779795     -1.07082890227219
  O           1.41878274986099     -2.36908156213743     -3.34177993052567
  O           1.12396958322953     -2.52177549232680      3.13540051511280
  O           2.65686019619119     -0.01260808373775      3.02280688781942
  O           2.40716753489203     -3.38852490293456      0.90958393514844
  O           3.92988775537465     -0.94001707780809      0.95205762717665
  O          -3.76444688196663      0.53789845568888     -1.03568223518029
  O          -2.42851161209358      3.13823530246851     -1.00526724084488
  O          -2.51183941051459     -0.14660730435346     -3.20265174666108
  O          -1.12281907615586      2.41431253230257     -3.25587550519957
  O           1.10495568621326      2.06230012568552     -3.46679520678124
  O           2.62471844326731      3.27753777425728     -0.80876134424836
  O           2.54097444707508     -0.39850972584320     -3.40047390462872
  O           3.68121134836441      0.85686904121370     -0.40866030364787
  O          -3.81179684165069     -0.62718260724476      0.91943573991904
  O          -2.36120773788232      0.19214921665067      3.31884524752288
  O          -2.59484188229606     -2.93343064039497      0.82899941574332
  O          -1.12525864518318     -2.27274258567194      3.29322769753313
  C          -2.00289650611687      1.31846279911789      3.78063920343765
  C          -2.29180114285091      3.85466480002330      0.03191851295968
  C           2.46009940151793      1.20246205895248      3.29040706519129
  C           2.09226039542381      4.15766685638757     -0.02444933087724
  C          -2.26028988618456     -3.81162904720496     -0.02666422647194
  C          -2.21363585450435     -1.28818565171816     -3.66922009923593
  C           2.18608290279846     -4.14853960101243     -0.08073636245785
  C           2.26920672853767     -1.56099874444097     -3.82680761310584
  C          -0.00289761042222     -2.72437693309743      3.67910689640488
  C           4.37393297705858     -0.01624516680178      0.21453946802164
  C          -4.33919473563969      0.05335246163561     -0.01245628718762
  C           0.00477301795280      2.56903249116841     -3.82468497871508
  H          -2.66737492557181     -1.55192932035861     -4.66899310968333
  H           2.71655477729795     -5.14399462902109     -0.08178539718384
  H           2.89199205619087      1.59139447008674      4.25830679270842
  H          -2.93313636149379      4.78067190840531      0.09532417815714
  H           2.84279498943099     -1.91142141667593     -4.73225230801474
  H           0.01720073465905      3.22557726807011     -4.74155993985661
  H           2.47154361742315      5.21540548212391     -0.13816046135276
  H           5.49455312257344      0.05772458077954      0.10399015767336
  H          -2.73755641689750     -4.82831522696610      0.09272088236077
  H          -5.45133850491866      0.23140615049255      0.06784146695996
  H          -2.46133419163065      1.63110077802779      4.76270510603662
  H          -0.01078373927052     -3.37405005129938      4.60100535055455
  Al          4.06070786623960      3.34483965258050     -2.09496858828804
  H           3.75457447387624      4.63008561381122     -3.05000935210872
  H           5.49988543912913      3.20975694219300     -1.34770870608899
  H           3.51131236565723      1.89507004914511     -2.74221933145572
