80
Coordinates from ORCA-job run_pre E -4220.512875148273
  Zr         -0.10341732938811      2.16978936896664      1.30575440780654
  Zr          0.19858179906978     -2.10171188555522     -1.44879511797772
  Zr          1.84544867604395     -1.00329152650007      1.38732996237829
  Zr         -1.82523883932582      1.04710618173090     -1.49357128503667
  Zr          1.63550946935179      1.03822930793273     -1.79100168834030
  Zr         -1.60756258190077     -0.95125097407362      1.66899199340369
  O          -1.67835732342555      0.81787782598466      0.55895018858901
  O           1.78175374989071     -0.72946495333898     -0.67963508877329
  O          -0.04714529828644     -1.81939605902557      0.60215376740292
  O           0.12067098281140      1.95300997938711     -0.71913810332247
  O          -0.21352266643156     -0.15005210966789     -2.03251959965388
  O           0.26530752046462      0.23322016453381      1.98449903367673
  O          -1.33833775239335      2.24469442969309      3.14807839794214
  O          -1.70492095055274      3.75899791702899      0.84249114145082
  O           1.94539338992340      2.23220164447751      2.14991832475095
  O           1.34810865957400      4.10641110906708      0.31568546778306
  O          -1.40569551937253     -3.53645859323093     -0.85056897886992
  O          -1.30228703270520     -2.30258242446014     -3.14282745363137
  O           1.59566346548995     -3.74255953688879     -0.90205094925082
  O           1.56862405029348     -2.24566044854786     -3.20648238396151
  O           1.36610755664574     -2.22381662029388      3.18524232062484
  O           2.72751679892464      0.30765403694348      3.04469856383732
  O           2.69537583205206     -3.01112697976373      0.93918541179077
  O           3.92048944554539     -0.30472705335756      0.81471335267991
  O          -3.94316128405423      0.66265352078421     -0.80471988054202
  O          -2.52032418003601      3.12719449323617     -1.17957968384121
  O          -2.71210026595414     -0.56099689032078     -2.75259069048706
  O          -1.39469640735700      2.07695966852698     -3.41457777431575
  O           0.86079393207044      2.02991581748236     -3.63843074061697
  O           2.31278515041391      3.22370421105722     -1.54509467192687
  O           2.47324320088161     -0.18115511909892     -3.44683392506663
  O           3.70155272610729      1.07686013257797     -0.97593928947354
  O          -3.70284932792501     -0.81710253551599      0.90805479792415
  O          -2.37545137654277      0.24647611307843      3.37071247489783
  O          -2.33771670208264     -3.03359634546425      1.16451124919789
  O          -0.88042704140058     -2.06513952878917      3.44884680549316
  C          -2.11268210051278      1.42894270443310      3.74418493725926
  C          -2.40596078152234      3.93114830897227     -0.21044171142771
  C           2.56538790136088      1.55496964226728      3.04898510496601
  C           2.05352245588415      4.16808825038099     -0.76366798106996
  C          -2.05259789974897     -3.81550459509316      0.21211848262734
  C          -2.27460248643565     -1.55029285454716     -3.43203682229323
  C           2.44723207750927     -3.86206864225630      0.03215813211400
  C           2.32476244424875     -1.40048612149762     -3.77207476521556
  C           0.27883565615211     -2.44288459744333      3.80144339176200
  C           4.37061637636845      0.36007582737384     -0.16293761354637
  C          -4.37384054723843     -0.02787236300044      0.16541833733363
  C          -0.31084705036731      2.30127958831308     -4.03806722467595
  H          -2.83166951351031     -1.78363045809208     -4.38543381286539
  H           3.04102030246956     -4.81987816904055      0.05789622528260
  H           3.00568113211472      2.14181537340353      3.90457261070328
  H          -2.98672240319957      4.89412658111762     -0.27540122864457
  H           2.92650506507568     -1.76533200859702     -4.65287083374537
  H          -0.40172922009148      2.79266445968827     -5.04873751856771
  H           2.48479321225258      5.18014030666125     -1.01832753908965
  H           5.48738520058038      0.33476700573321     -0.32228364457269
  H          -2.42763182459871     -4.87641260408825      0.30103611387243
  H          -5.47702117591978      0.05011304934067      0.38869656180254
  H          -2.60667778558657      1.79896762287293      4.68564062555523
  H           0.34893275242462     -3.03563545813834      4.75762452422131
  Al         -3.19724713895484      5.08622458620781      2.82282372158150
  Al         -4.02821885110742      5.22367971319270      5.79094183947093
  H          -3.20021009194136      6.49071960514438      6.63121611580072
  H          -5.57275493566477      5.30195878851061      6.24910597032322
  H          -3.87625247391172      5.94600491272420      4.23549699035449
  H          -3.28074315950358      6.26431729596103      1.72289466166820
  H          -1.67373213182691      5.06708807779601      3.57416804250269
  H          -3.09601536311972      3.89733592953039      5.84542356052379
  Al         -1.50015854964930      6.54831696102056      7.07726780190703
  H          -0.85390246503366      6.04558495166427      5.58787736741003
  H          -1.22824953358843      8.13254823099561      7.25006396265329
  H          -4.02642660117766      3.69868401957816      2.84225130967960
  Al         -0.10948723090675      5.04116750583647      4.26707260269041
  H           0.28464987937990      4.23687629364290      2.55108827960460
  H           0.46764110664398      3.81324296170793      5.13282254643254
  H          -1.26401385340741      5.41285154249757      8.20250063534680
  Al          1.24280958004154      5.47606183732193      1.77171492039633
  H           2.79129611353963      5.55166346806840      2.24003836873964
  H           0.75676144600911      6.30468440612055      3.64769806650779
  H           0.35066018268432      6.63411645571335      1.07511616095125
