92
Coordinates from ORCA-job run E -4956.956602835295
  Zr         -1.17641637875086      2.10115183595536      1.18632116076755
  Zr          0.50674122463223     -1.76000359765429     -1.31908343378207
  Zr          1.82747979976949      0.04500740934323      1.31382002367675
  Zr         -2.57436382873120      0.38547088932744     -1.35256067033841
  Zr          0.60647698581339      1.61735956935433     -1.79441109061730
  Zr         -1.34252722019709     -1.25220575954386      1.81518671727644
  O          -2.13932957534437      0.26558892603600      0.68585812652345
  O           1.50110842775760      0.11204739038835     -0.72592847664545
  O           0.33706113616033     -1.49444058123982      0.72378512231727
  O          -1.24075982931444      2.05765906862745     -0.83871849598086
  O          -0.66627881164770     -0.15404403711411     -1.86267898709806
  O          -0.00205419043222      0.67206657683952      1.98542346886231
  O          -2.30265408071300      1.95961843473280      3.39901305245163
  O          -3.16511350686461      2.99558515456483      0.93947333475191
  O           0.90740821681847      2.83631050321171      3.56882605920465
  O           0.72030933678547      3.01710179001545      0.40621284186461
  O          -0.13761413828753     -3.74553894137960     -0.54536142691644
  O          -1.00748070428136     -2.61107425703309     -2.70411943217839
  O           2.48395985599834     -2.64539919877034     -0.92172319517850
  O           1.59300681941458     -1.48090042125914     -3.20596836097493
  O           1.93591917231984     -1.27659010129271      3.10196311670026
  O           2.51567985592631      1.37042740399473      3.02740101028240
  O           3.32954327855374     -1.47595158473177      0.81403581071559
  O           3.32022764556313      1.47415850155099      0.55565142690580
  O          -4.13273893604304     -0.95742335062532     -0.51872292329879
  O          -4.08323817929125      1.89737228601762     -0.80870958993798
  O          -2.85892105032872     -1.30085887574034     -2.77229170485918
  O          -2.69674767501961      1.51176250503063     -3.21943773803254
  O          -0.58641416874858      2.25361011759383     -3.55876673454756
  O           0.65204575039294      3.92834925580514     -1.61990400640260
  O           1.59995821748234      0.75021953679672     -3.54657186233112
  O           2.73653911862874      2.29905971535616     -1.48138868531595
  O          -3.42966307265629     -1.89665871353637      1.42403738479243
  O          -2.34280799875210     -0.29624126643496      3.51336629900283
  O          -1.34199047887867     -3.41438894775830      1.34664270584835
  O          -0.18839910596267     -1.90602598238520      3.54419308609940
  C          -2.59965849711941      0.84076999826569      3.96358928166402
  C          -4.07416396994581      2.80127790841793      0.07534314777117
  C           2.08624620395265      2.35121751580230      3.67353713971549
  C           0.66155903381009      4.05252457097791     -0.38158030218760
  C          -0.70643567180241     -4.13040512848875      0.51556571176807
  C          -2.10156251902979     -2.21691878358635     -3.20609171855404
  C           3.38472347847595     -2.37239262531509     -0.07724597124387
  C           1.88586809754404     -0.43947589939914     -3.86323062417297
  C           1.05838595483272     -1.87140373260148      3.78255798875073
  C           3.55894767187889      2.03068788548714     -0.56264435531588
  C          -4.30915711860158     -1.57622266702992      0.57132768197293
  C          -1.80836172295215      2.15636610987673     -3.85800882370394
  H          -2.44204850155189     -2.74638365253408     -4.11690333300227
  H           4.31019750789679     -2.97625253023672     -0.12016026247695
  H           2.77411503581588      2.82635703252030      4.39965155386993
  H          -4.93797373506174      3.49022646284423      0.10929283978361
  H           2.44389691288560     -0.58432591136737     -4.80660000418999
  H          -2.14273857445047      2.68025360772091     -4.77288570738786
  H           0.60310783962586      5.05419140401400      0.08064826964776
  H           4.61010972555199      2.33115888479416     -0.73844294929949
  H          -0.66082934362617     -5.21410514418566      0.73628352462164
  H          -5.34690654269863     -1.88842981727989      0.79745860533600
  H          -3.12544445190705      0.91120081666450      4.93091312524121
  H           1.40295492965602     -2.41937019534543      4.67938329433542
  Al         -4.22092465499329      5.79690140106277      2.79098185356225
  Al         -3.71119125085224      8.87357487261360      2.73857901293297
  Al         -3.11303832573681      6.75692949642296      5.03157437350667
  Al         -2.80804768386951      3.64543219222605      4.59504062786493
  Al          0.15119307984073      7.01209948481429      4.35391169506383
  Al         -0.76144473613227      8.23633624664041      1.52418959024250
  Al          0.08326061974695      4.48250331585268      3.42699244472628
  Al          1.96674024652857      6.45172895961595      2.03729314384297
  H           3.45077360936379      6.40615401407407      1.45781794909141
  H           1.79069100123856      7.09973268616886      3.52903538485982
  H           1.42939791086217      4.89577634088391      2.31033248952036
  H           0.85454109110279      7.20840428265281      1.10401550457709
  H          -1.58112703372808      6.99084233784076      0.94080555980156
  H          -0.18175727999371      9.48708390253045      0.71694556760306
  H          -2.30892194228281      9.21172418379303      1.95199427601108
  H          -4.74187634692014     10.08774180285692      2.77042864383283
  H          -0.38388647689827      8.30308365990662      3.17156472298518
  H          -3.22343971990203      8.37955421481545      4.23769390490140
  H          -1.41357251808430      6.90976134115536      5.08440291148551
  H          -3.64404951369952      7.36139651689079      6.41563951062645
  H          -3.03893979398885      5.11171239158752      5.46201106984878
  H          -1.19263919880111      4.03986443332410      4.52753449575109
  H          -3.28387299061068      2.71132413542158      5.80025267620337
  H           0.75151334352234      5.32237703122808      4.79206819172403
  H           0.80067031541068      7.92031534080931      5.49952006015149
  H          -0.50362458432202      6.04556047422096      3.03383205111808
  H          -5.07856427824457      5.24209566499376      1.57616762923474
  H          -4.34691990144529      7.49175742775432      2.07796404556136
  H          -3.88785674118576      4.10486822415921      3.42054434619154
  H          -4.80056603263364      6.33643783403241      4.26766127479614
  H          -0.92141999915653      3.92240226548592      2.14818460561586
  H          -2.67294867503196      6.16819030949718      3.25866619552113
