92
Coordinates from ORCA-job run E -4951.258254129475
  Zr         -0.93511261362808      2.11849405281602      1.23034323822119
  Zr          0.44359210453463     -1.84915729312749     -1.35940253617749
  Zr          1.89677200200225     -0.17463051709932      1.22962534122487
  Zr         -2.47196027006953      0.45998407898157     -1.27163559562402
  Zr          0.71654613055887      1.47398871270703     -1.85969557723577
  Zr         -1.28116104338951     -1.21275203092522      1.81036449001230
  O          -2.03193532814349      0.36076645499564      0.73705920966305
  O           1.53752594964485     -0.05237466530230     -0.78392766643632
  O           0.33208031964781     -1.58319444546029      0.67380891866069
  O          -0.99938913108943      1.98392533064720     -0.79017026494494
  O          -0.63339788344508     -0.19942355696694     -1.87341736634546
  O           0.11758934994653      0.55082398338967      1.91196178140628
  O          -2.09851322068891      1.98290604367237      3.39006045219298
  O          -2.83287434247625      3.11802688725722      0.90045950977435
  O           1.00944162030019      2.73345898633262      3.13691535103709
  O           0.85349307393641      3.12305617774301      0.43917393189932
  O          -0.47184488904391     -3.68236884447735     -0.58749670802083
  O          -1.05391092655155     -2.57357960824028     -2.82529563880555
  O           2.31442200480411     -2.89147355989679     -0.94740012201084
  O           1.56143261589459     -1.63565531713407     -3.21586177712880
  O           1.97000911342048     -1.47805830148905      2.99778691864431
  O           2.55458504538321      1.15766752306881      2.91824164598936
  O           3.30120649947905     -1.74275567325361      0.68299485479721
  O           3.41066018535800      1.19628039653866      0.48539030726655
  O          -4.17667328201428     -0.63212339530861     -0.37648260852509
  O          -3.82283707124800      2.09938937557454     -0.81572520156336
  O          -2.87470697403643     -1.31743108224881     -2.48845457309378
  O          -2.57074381122409      1.48806503710318     -3.17536520452684
  O          -0.47706637728061      2.13771176548653     -3.57435280893187
  O           0.85010525859280      3.72781550678202     -1.67993995849384
  O           1.65481722541490      0.55578458922371     -3.58607708586315
  O           2.83338391717192      2.06935655579166     -1.49282057133979
  O          -3.33225565200786     -1.79136503231230      1.33862074147969
  O          -2.24681478758669     -0.23811398114626      3.49822531922451
  O          -1.34641438992335     -3.39702336747015      1.45034486376059
  O          -0.15154162941396     -1.89743965836848      3.52187928993077
  C          -2.47365325686450      0.89422922536382      3.93336193390383
  C          -3.74291246658083      2.99910239273520      0.04513351303338
  C           2.09326379052044      2.16454827115021      3.46546117664433
  C           0.87501024466579      4.00952797839572     -0.47874905278108
  C          -0.89363117190559     -4.09354553479490      0.51989494367692
  C          -2.19599463293288     -2.16632867435822     -3.11645247346449
  C           3.25621497283061     -2.66768160996918     -0.15691499561354
  C           1.89993384590953     -0.63376917437118     -3.88114004038502
  C           1.08370606391355     -1.97009609045200      3.72190126796336
  C           3.65770515497570      1.75043735527152     -0.61412156629044
  C          -4.27561349363058     -1.34280980021681      0.64218718052572
  C          -1.68921076996222      2.06119633007813     -3.85743759067730
  H          -2.66711553074799     -2.61048607226234     -4.00246235418005
  H           4.11881829146427     -3.34220743477677     -0.20299802758601
  H           2.65894637100867      2.60719495977057      4.29538182289862
  H          -4.53771086923298      3.75207984238720      0.06600172245476
  H           2.45969327934329     -0.81269740498664     -4.80602208885968
  H          -2.01576071629590      2.53480437399201     -4.79042062754451
  H           0.91718590489989      5.06171275344756     -0.17472697292989
  H           4.70860939813309      1.99920874228901     -0.80797330684562
  H          -0.88112822977609     -5.17945752115219      0.67615313972287
  H          -5.28913373205009     -1.62371804348955      0.95438069596398
  H          -3.04190951582571      0.98069087048117      4.86464810319076
  H           1.40910985544058     -2.51508281985274      4.61540850251819
  Al         -4.21199170595152      5.76074767695470      2.80336698930970
  Al         -4.13942302680627      8.82804454404690      2.80619493774371
  Al         -3.27507873949789      6.83034522101226      5.06661557802720
  Al         -2.51505855733058      3.70618934553979      4.54784256174239
  Al         -0.17810707349198      7.40660712887025      4.42151918483878
  Al         -1.04329066506803      8.34897376720189      1.52869909598025
  Al          0.31884415653204      4.43681413268662      3.51332861080418
  Al          1.80763163957908      6.83901726924264      2.14075591498267
  H           3.29338200287967      6.95770580330381      1.62534267114612
  H           1.49586460398486      7.40772157108688      3.62584897953719
  H           1.27165202741257      5.29401910887603      2.19433913733284
  H           0.69205421663167      7.62904528603359      1.24853923022754
  H          -1.68433005790054      7.02353703736407      0.95196178995527
  H          -0.66328019093459      9.69876693754243      0.80915030492286
  H          -2.67108426605809      9.02086475507545      2.13449471947892
  H          -5.08531130712741     10.07794958208338      2.63401422353326
  H          -0.63987399593222      8.46924196616181      3.18052448511632
  H          -3.86361120492730      8.40144977027250      4.35993778451380
  H          -1.75465961449400      7.54685337325383      5.06623614746895
  H          -3.89364852600169      7.17663366162433      6.48178283446762
  H          -2.64919862513923      5.27714852538898      5.28161686790142
  H          -0.89346039421259      3.88374766623655      4.69400527722930
  H          -3.23247040632132      2.89599172318232      5.70358451062363
  H           1.32340105458981      4.89680455881059      4.67777463982721
  H           0.57502065318120      7.84911916859550      5.72920151626688
  H          -0.54816460938780      6.02286553243553      3.63610309691624
  H          -5.01433493652389      5.13412644975091      1.60755157978250
  H          -4.75420764240302      7.42866046444675      2.21734925520166
  H          -3.47448929288454      4.23074174382611      3.32253996773958
  H          -4.80540931552447      6.05165955325331      4.32204669100611
  H          -0.82029584673312      4.10505780305220      2.29832806205289
  H          -2.80906674021452      6.50450897961628      3.22944140417339
