12
Coordinates from ORCA-job run E -731.686622886526
  Al     -0.229465      1.518719      2.565333
  Al      0.000121     -0.000507     -0.083536
  H       0.872783     -0.936113      1.069964
  H      -1.104267     -0.908414     -0.771134
  H      -0.863230      0.941627      1.071787
  H      -1.473542      2.184480      3.291334
  H       0.004056      0.000973      3.330927
  H       1.098729      0.903679     -0.785103
  Al      0.255690     -1.515992      2.569382
  H       1.513180     -2.162656      3.289507
  H      -1.180669     -2.143678      2.318759
  H       1.213553      2.126193      2.303140
12
Coordinates from ORCA-job run E -731.687065928847
  Al     -0.229785      1.515950      2.563851
  Al      0.000137     -0.000528     -0.080407
  H       0.867221     -0.933622      1.071961
  H      -1.100703     -0.905009     -0.764619
  H      -0.857558      0.939183      1.073736
  H      -1.469450      2.178714      3.287329
  H       0.004125      0.000967      3.323638
  H       1.095201      0.900206     -0.778638
  Al      0.255973     -1.513222      2.567824
  H       1.508985     -2.156944      3.285474
  H      -1.175722     -2.137241      2.317843
  H       1.208515      2.119856      2.302367
12
Coordinates from ORCA-job run E -731.687528579496
  Al     -0.231228      1.509269      2.560455
  Al      0.000169     -0.000588     -0.072885
  H       0.851432     -0.927464      1.077079
  H      -1.093359     -0.897082     -0.749113
  H      -0.841422      0.933207      1.078701
  H      -1.461204      2.164846      3.278491
  H       0.004326      0.000945      3.303450
  H       1.087914      0.892028     -0.763378
  Al      0.257303     -1.506535      2.564188
  H       1.500456     -2.143191      3.276530
  H      -1.164474     -2.121716      2.315943
  H       1.197028      2.104593      2.300898
12
Coordinates from ORCA-job run E -731.687558348146
  Al     -0.231957      1.509245      2.560628
  Al      0.000165     -0.000601     -0.072907
  H       0.848615     -0.927354      1.077373
  H      -1.094314     -0.896854     -0.748991
  H      -0.838525      0.933180      1.078943
  H      -1.462448      2.164499      3.278994
  H       0.004357      0.000937      3.300442
  H       1.088836      0.891697     -0.763405
  Al      0.258016     -1.506502      2.564299
  H       1.501655     -2.142847      3.276998
  H      -1.164547     -2.121396      2.316456
  H       1.197085      2.104306      2.301529
12
Coordinates from ORCA-job run E -731.687644294448
  Al     -0.236417      1.510821      2.562579
  Al      0.000130     -0.000669     -0.075055
  H       0.833436     -0.928478      1.077901
  H      -1.100889     -0.895047     -0.750992
  H      -0.822867      0.934838      1.079162
  H      -1.470626      2.164402      3.283049
  H       0.004504      0.000884      3.285157
  H       1.095173      0.889257     -0.766363
  Al      0.262409     -1.508017      2.565892
  H       1.509580     -2.142776      3.280855
  H      -1.165184     -2.122284      2.321180
  H       1.197691      2.105380      2.306996
12
Coordinates from ORCA-job run E -731.687656361388
  Al     -0.237501      1.512145      2.563526
  Al      0.000116     -0.000681     -0.076672
  H       0.830488     -0.929974      1.077226
  H      -1.102480     -0.893495     -0.752562
  H      -0.819796      0.936496      1.078403
  H      -1.472308      2.164934      3.284009
  H       0.004505      0.000866      3.282825
  H       1.096674      0.887541     -0.768216
  Al      0.263497     -1.509325      2.566761
  H       1.511201     -2.143332      3.281786
  H      -1.164535     -2.123865      2.323620
  H       1.197079      2.107001      2.309656
12
Coordinates from ORCA-job run E -731.687692557552
  Al     -0.241819      1.518939      2.568021
  Al      0.000051     -0.000721     -0.084827
  H       0.819221     -0.938268      1.073118
  H      -1.109306     -0.884661     -0.760417
  H      -0.807999      0.945499      1.073938
  H      -1.478806      2.167438      3.287415
  H       0.004432      0.000787      3.275193
  H       1.103060      0.878031     -0.777336
  Al      0.267873     -1.516054      2.570964
  H       1.517445     -2.145966      3.285115
  H      -1.160399     -2.132773      2.336076
  H       1.193187      2.116059      2.323100
12
Coordinates from ORCA-job run E -731.687699124562
  Al     -0.242572      1.520973      2.569196
  Al      0.000037     -0.000723     -0.087151
  H       0.816828     -0.941539      1.071377
  H      -1.111491     -0.880965     -0.762611
  H      -0.805458      0.948953      1.072110
  H      -1.480364      2.167608      3.287536
  H       0.004356      0.000759      3.274224
  H       1.105093      0.874196     -0.779895
  Al      0.268663     -1.518077      2.572089
  H       1.518937     -2.146172      3.285253
  H      -1.158815     -2.136326      2.340466
  H       1.191726      2.119622      2.327767
12
Coordinates from ORCA-job run E -731.687704982715
  Al     -0.242802      1.522524      2.569957
  Al      0.000031     -0.000717     -0.088789
  H       0.814649     -0.945204      1.069429
  H      -1.114262     -0.876537     -0.764104
  H      -0.803134      0.952762      1.070098
  H      -1.482073      2.166687      3.286722
  H       0.004236      0.000726      3.273533
  H       1.107696      0.869693     -0.781740
  Al      0.268943     -1.519624      2.572825
  H       1.520582     -2.145271      3.284485
  H      -1.157415     -2.140324      2.345194
  H       1.190488      2.123595      2.332751
12
Coordinates from ORCA-job run E -731.687713778858
  Al     -0.242847      1.524344      2.570718
  Al      0.000031     -0.000707     -0.090556
  H       0.810433     -0.951163      1.066354
  H      -1.119634     -0.868918     -0.765617
  H      -0.798670      0.958915      1.066932
  H      -1.485497      2.163909      3.284660
  H       0.004020      0.000671      3.271627
  H       1.112785      0.861999     -0.783825
  Al      0.269068     -1.521441      2.573553
  H       1.523895     -2.142505      3.282508
  H      -1.155672     -2.146818      2.353025
  H       1.189027      2.130026      2.340981
12
Coordinates from ORCA-job run E -731.687728603739
  Al     -0.242731      1.526975      2.571648
  Al      0.000046     -0.000695     -0.092932
  H       0.801114     -0.962074      1.060874
  H      -1.130733     -0.854238     -0.767464
  H      -0.788867      0.970139      1.061294
  H      -1.492924      2.157207      3.280097
  H       0.003615      0.000572      3.266556
  H       1.123352      0.847221     -0.786731
  Al      0.269096     -1.524054      2.574426
  H       1.531094     -2.135836      3.278085
  H      -1.153097     -2.158676      2.367918
  H       1.186975      2.141771      2.356589
12
Coordinates from ORCA-job run E -731.687742736767
  Al     -0.242520      1.529209      2.572265
  Al      0.000075     -0.000698     -0.094836
  H       0.788953     -0.973783      1.055158
  H      -1.144023     -0.837536     -0.768656
  H      -0.776156      0.982133      1.055406
  H      -1.502318      2.148247      3.274376
  H       0.003184      0.000476      3.259191
  H       1.136066      0.830450     -0.789063
  Al      0.269033     -1.526241      2.574984
  H       1.540210     -2.126941      3.272469
  H      -1.150930     -2.171296      2.384826
  H       1.185366      2.154291      2.374241
12
Coordinates from ORCA-job run E -731.687748894236
  Al     -0.242417      1.529966      2.572386
  Al      0.000090     -0.000712     -0.095557
  H       0.780798     -0.979919      1.052242
  H      -1.151978     -0.828366     -0.768770
  H      -0.767717      0.988373      1.052411
  H      -1.508426      2.142185      3.270859
  H       0.002975      0.000427      3.253844
  H       1.143729      0.821259     -0.789727
  Al      0.268994     -1.526958      2.575059
  H       1.546168     -2.120870      3.268969
  H      -1.150401     -2.177558      2.394428
  H       1.185125      2.160483      2.384217
12
Coordinates from ORCA-job run E -731.687750121869
  Al     -0.242388      1.529761      2.572315
  Al      0.000079     -0.000720     -0.095592
  H       0.779020     -0.980577      1.051917
  H      -1.153217     -0.827578     -0.768484
  H      -0.765947      0.988989      1.052108
  H      -1.509740      2.140707      3.270228
  H       0.002970      0.000415      3.252657
  H       1.144963      0.820490     -0.789388
  Al      0.268955     -1.526752      2.574967
  H       1.547493     -2.119280      3.268316
  H      -1.150891     -2.177670      2.395760
  H       1.185644      2.160525      2.385557
12
Coordinates from ORCA-job run E -731.687750761726
  Al     -0.242326      1.529458      2.572268
  Al      0.000058     -0.000725     -0.095645
  H       0.778725     -0.980336      1.051976
  H      -1.152996     -0.828448     -0.768226
  H      -0.765738      0.988659      1.052219
  H      -1.509992      2.140192      3.270115
  H       0.002998      0.000410      3.252694
  H       1.144801      0.821402     -0.788916
  Al      0.268866     -1.526460      2.574905
  H       1.547805     -2.118597      3.268176
  H      -1.151513     -2.176611      2.395540
  H       1.186252      2.159367      2.385255
12
Coordinates from ORCA-job run E -731.687751452017
  Al     -0.242199      1.529186      2.572305
  Al      0.000021     -0.000729     -0.095965
  H       0.778420     -0.980310      1.051867
  H      -1.152594     -0.829554     -0.768040
  H      -0.765589      0.988475      1.052200
  H      -1.510290      2.139499      3.269844
  H       0.003024      0.000402      3.253195
  H       1.144495      0.822595     -0.788360
  Al      0.268701     -1.526209      2.574926
  H       1.548217     -2.117610      3.267865
  H      -1.152271     -2.175237      2.395476
  H       1.187005      2.157802      2.385047
12
Coordinates from ORCA-job run E -731.687751887560
  Al     -0.242083      1.529231      2.572473
  Al     -0.000014     -0.000727     -0.096526
  H       0.777701     -0.981057      1.051395
  H      -1.152755     -0.829576     -0.768139
  H      -0.765013      0.989074      1.051807
  H      -1.510879      2.138675      3.269290
  H       0.003010      0.000394      3.253667
  H       1.144725      0.822711     -0.788138
  Al      0.268559     -1.526271      2.575084
  H       1.548914     -2.116499      3.267283
  H      -1.152619     -2.174830      2.396355
  H       1.187395      2.157186      2.385810
12
Coordinates from ORCA-job run E -731.687752032375
  Al     -0.242049      1.529477      2.572652
  Al     -0.000032     -0.000718     -0.096962
  H       0.776877     -0.982047      1.050887
  H      -1.153351     -0.828694     -0.768397
  H      -0.764264      0.989985      1.051333
  H      -1.511477      2.138133      3.268765
  H       0.002964      0.000387      3.253787
  H       1.145339      0.821894     -0.788257
  Al      0.268523     -1.526523      2.575267
  H       1.549571     -2.115799      3.266751
  H      -1.152486     -2.175408      2.397564
  H       1.187324      2.157625      2.386971
12
Coordinates from ORCA-job run E -731.687752059544
  Al     -0.242067      1.529624      2.572734
  Al     -0.000037     -0.000708     -0.097099
  H       0.776430     -0.982551      1.050665
  H      -1.153736     -0.828054     -0.768564
  H      -0.763855      0.990456      1.051123
  H      -1.511754      2.138007      3.268528
  H       0.002926      0.000384      3.253748
  H       1.145727      0.821293     -0.788377
  Al      0.268547     -1.526674      2.575359
  H       1.549878     -2.115611      3.266519
  H      -1.152285     -2.175945      2.398171
  H       1.187166      2.158089      2.387553
12
Coordinates from ORCA-job run E -731.687752073515
  Al     -0.242093      1.529687      2.572779
  Al     -0.000043     -0.000694     -0.097138
  H       0.776139     -0.982827      1.050562
  H      -1.153939     -0.827679     -0.768684
  H      -0.763623      0.990686      1.051038
  H      -1.511894      2.138022      3.268387
  H       0.002887      0.000380      3.253754
  H       1.145948      0.820972     -0.788418
  Al      0.268578     -1.526745      2.575417
  H       1.550060     -2.115550      3.266387
  H      -1.152137     -2.176285      2.398474
  H       1.187058      2.158343      2.387803
12
Coordinates from ORCA-job run E -731.687752090241
  Al     -0.242133      1.529700      2.572820
  Al     -0.000054     -0.000666     -0.097144
  H       0.775812     -0.983071      1.050486
  H      -1.154063     -0.827376     -0.768845
  H      -0.763430      0.990831      1.051004
  H      -1.511992      2.138145      3.268234
  H       0.002819      0.000370      3.253860
  H       1.146121      0.820781     -0.788386
  Al      0.268622     -1.526775      2.575485
  H       1.550250     -2.115513      3.266251
  H      -1.151981     -2.176583      2.398695
  H       1.186968      2.158467      2.387897
12
Coordinates from ORCA-job run E -731.687752102114
  Al     -0.242164      1.529634      2.572830
  Al     -0.000067     -0.000635     -0.097118
  H       0.775644     -0.983128      1.050479
  H      -1.154000     -0.827351     -0.768977
  H      -0.763422      0.990773      1.051047
  H      -1.511966      2.138321      3.268165
  H       0.002751      0.000358      3.254043
  H       1.146123      0.820887     -0.788278
  Al      0.268655     -1.526733      2.575526
  H       1.550334     -2.115501      3.266200
  H      -1.151917     -2.176635      2.398703
  H       1.186967      2.158321      2.387741
12
Coordinates from ORCA-job run E -731.687752109134
  Al     -0.242178      1.529545      2.572813
  Al     -0.000076     -0.000610     -0.097098
  H       0.775622     -0.983065      1.050501
  H      -1.153851     -0.827475     -0.769073
  H      -0.763537      0.990617      1.051110
  H      -1.511870      2.138456      3.268177
  H       0.002696      0.000346      3.254196
  H       1.146033      0.821122     -0.788168
  Al      0.268671     -1.526665      2.575536
  H       1.550332     -2.115483      3.266225
  H      -1.151926     -2.176536      2.398623
  H       1.187024      2.158058      2.387517
