12
Coordinates from ORCA-job run E -732.259480999908
  Al         -0.22946485951102      1.51871871756926      2.56533259982382
  Al          0.00012097258280     -0.00050746296349     -0.08353622947577
  H           0.87278305066732     -0.93611312450364      1.06996419757848
  H          -1.10426675871253     -0.90841421039886     -0.77113422925431
  H          -0.86322985615927      0.94162737451719      1.07178739756067
  H          -1.47354173920657      2.18448043105257      3.29133402984409
  H           0.00405602734794      0.00097309440502      3.33092710955315
  H           1.09872921804777      0.90367850704025     -0.78510298429224
  Al          0.25568985947999     -1.51599221888212      2.56938167041303
  H           1.51318024567834     -2.16265556827583      3.28950695710879
  H          -1.18066877765674     -2.14367806388008      2.31875913559672
  H           1.21355261744200      2.12619252431974      2.30314034554353
