88
Coordinates from ORCA-job run E -4708.478708606919
  Zr         -0.04394878509931      2.00568637172745      1.72610126842093
  Zr          0.32476974738648     -1.91561821405536     -1.58128258552543
  Zr          1.87713646577670     -1.19650910377981      1.45514955758087
  Zr         -1.60366515268443      1.30591967372657     -1.29437088912607
  Zr          1.86538320334041      1.19533544155061     -1.42931632151653
  Zr         -1.60593864130207     -1.11419230373572      1.54231899879155
  O          -1.61680242713794      0.79196628304476      0.70725197380031
  O           1.88950933631359     -0.69199750074259     -0.57589528070339
  O          -0.00112783120067     -1.88391774407853      0.46583425266055
  O           0.28487962958607      1.98001664570749     -0.33133134589489
  O          -0.02667769787426      0.10995839915300     -1.95150912234872
  O           0.27128300497683     -0.02779477037684      2.07583538596115
  O          -1.43302501228498      1.91106175999590      3.46105055077768
  O          -1.44492445284552      3.69399886871922      1.35524739273712
  O           1.52997149940766      1.92764123459051      3.32124860450020
  O           1.46971583873021      3.63844084049184      1.35069868904440
  O          -1.09464674600518     -3.63468324982432     -1.17004489626493
  O          -1.35337305259314     -1.90926547785432     -3.09417273859716
  O           1.78633499040452     -3.55907555486481     -1.24034752802522
  O           1.65233763312987     -1.81100916812450     -3.36127074910538
  O           1.27520315820035     -2.62111504679526      3.05594863312191
  O           2.63758593783249     -0.05991851990131      3.25990546815974
  O           2.71785284805727     -3.14300013831747      0.78406710936101
  O           3.94573798395637     -0.43093949612970      1.04282629621936
  O          -3.75662859731728      0.76901228354976     -0.82293232611390
  O          -2.37883396084135      3.28796175915930     -0.66683045436194
  O          -2.50299342109443      0.04777782656918     -2.94566318240923
  O          -1.01099580074476      2.67137020170696     -2.93899437284016
  O           1.25267647501239      2.63749253727174     -3.02319469145042
  O           2.69603339833890      3.04967368806904     -0.47239977445661
  O           2.59572479648120      0.24989852152912     -3.31474871070281
  O           4.02478859341418      0.84046920632105     -0.84282478106236
  O          -3.71781138077947     -0.78016922059652      0.84322606432611
  O          -2.37805948754005     -0.14964861926458      3.39252905930689
  O          -2.38007782577633     -3.00740254377439      0.60229943749495
  O          -0.98949633873883     -2.52402980816312      3.15472255282056
  C          -2.19181944958808      0.99595115492001      3.90443172450468
  C          -2.21011726868440      3.97919856868217      0.38428557398495
  C           2.28384863720131      1.02566970035276      3.80745682709453
  C           2.29853964511544      3.86468915384749      0.41915831940695
  C          -1.94246097264612     -3.84278943916974     -0.25085667430040
  C          -2.20436718141164     -1.05970246474685     -3.49063435532071
  C           2.57010674073989     -3.82121518086033     -0.27903539479833
  C           2.39304629574444     -0.89137201812587     -3.82772315649309
  C           0.14496274404479     -2.94844480822244      3.53216009829235
  C           4.54177373597064      0.12557854985527      0.06499192777507
  C          -4.29271560819829      0.06167686418852      0.08373281812921
  C           0.11398502084722      3.03542229823534     -3.40736292827606
  H          -2.79136985505776     -1.33244771336779     -4.41728272530697
  H           3.19911093732961     -4.75212794234849     -0.37619460046917
  H           2.70005251654393      1.22675800908938      4.83706144957995
  H          -2.79911142687518      4.93616540174546      0.46029364262845
  H           2.92530599029717     -1.11465070186433     -4.79660681370298
  H           0.08887929190080      3.78517545234457     -4.25000852817821
  H           2.74957926660087      4.89946774219276      0.38786885176657
  H           5.66009329363786     -0.02314800773302      0.01345332719552
  H          -2.37130571500001     -4.88618707404196     -0.19239914808216
  H          -5.40745664109582      0.17810954240515      0.21686144398394
  H          -2.75897267173076      1.22497224399064      4.85205870075032
  H           0.15110403671321     -3.69636797624365      4.37607363941547
  Al         -6.08504099451731      4.90514775733643     -2.23585249707303
  Al         -3.06496103524557      5.96208391957451     -3.53818092180446
  Al         -5.76105995762931      2.00182893574895     -3.82482567664012
  Al         -3.78656879321524      3.76336021906004     -5.51956100299174
  Al         -5.18718348963169      1.09483369119427     -6.35907195215265
  Al         -2.02274335929484      1.18828831064280     -6.43376869230424
  Al         -1.44723606165283      3.94513464842208     -7.77252640127558
  H          -7.08848265386158      6.09599146173197     -2.65418865173684
  H          -5.78687520234472      4.36666098899587     -0.74483303142572
  H          -3.44450191380051      7.14980777645898     -4.56290236903462
  H          -2.02034913463490      6.09434730286591     -2.31068763672348
  H          -4.52430579997272      5.29658734445018     -2.89302622355093
  H          -6.45683253856623      3.54615217601765     -3.23366780123472
  H          -6.26919459177717      0.91583423185724     -2.76290898698404
  H          -6.52404616710667      2.06412774357158     -5.35249346753947
  H          -3.40440835949186      0.45843859312087     -7.02273237901243
  H          -4.54013284421545      2.60930123389285     -6.72436711768682
  H          -4.72131771857926      0.51436955409654     -4.87660077385334
  H          -6.05911297276194      0.33089189273154     -7.46993462001531
  H          -1.60942824533604      2.17716821395824     -7.79814053697459
  H          -1.59024494224290      4.34469682956423     -9.32981232033676
  H          -0.21883239334675      4.22410542943290     -6.75912434214985
  H          -2.90451101667917      4.33261960024497     -6.97503512406410
  H          -2.60814160114753      4.57133297623951     -4.47307699961211
  H          -4.25751246484430      2.75610996114309     -4.02466186245322
  H          -5.03963496167661      4.79188304677337     -5.50378718802394
  H          -2.46780379250247      2.41707629833616     -5.37037503776053
  H          -0.82416754084339      0.23305580217686     -5.95126786903840
