72
Coordinates from ORCA-job run E -3732.508983335814
  Zr         -0.14355731157502      2.07014667834705      1.62102860933403
  Zr         -0.01139539102311     -1.99794707823993     -1.48176268077310
  Zr          1.75184480144506     -1.14441023353716      1.41527723106231
  Zr         -1.89573991033578      1.20898041033941     -1.27947998631353
  Zr          1.57228492054648      1.07853375375659     -1.58777063040070
  Zr         -1.70745724508461     -1.01229507093421      1.74041575534566
  O          -1.78148412096797      0.80680930564144      0.75496061445059
  O           1.63613391112932     -0.75019472926039     -0.61889969059886
  O          -0.22800008303112     -1.89021515642394      0.57862327963188
  O           0.07909644038329      1.96481956521277     -0.43873715995728
  O          -0.34399218732276      0.00063974015541     -1.89236034394921
  O           0.20604369965793      0.07257352165542      2.04168194087105
  O          -1.45742155126864      2.12388154943434      3.42897860959003
  O          -1.55198081640361      3.75993344048862      1.23226769899561
  O           1.43775924664698      2.03566339151510      3.24989443230758
  O           1.44264431687648      3.58012977366846      1.15221545392348
  O          -1.68194142015972     -3.41119536527484     -1.03958933238551
  O          -1.49870336416138     -1.92347303857149     -3.19891417509994
  O           1.32215178030900     -3.74816305766827     -1.03924278604134
  O           1.40665186637265     -2.09928177705859     -3.20629617425799
  O           1.24576248912760     -2.51752024424561      3.11824443485587
  O           2.57748649728970      0.05745264072843      3.13389219992853
  O           2.53435317628715     -3.13099191447529      0.78346759224118
  O           3.75253285602989     -0.33725518223425      0.84908883834267
  O          -3.87056984486904      0.33613109427537     -0.75600724450659
  O          -2.75000358457662      3.16309857592131     -0.60596683271181
  O          -2.66802777998041      0.03700158484684     -3.05097898928971
  O          -1.37519450762945      2.64987907901709     -2.90704565774202
  O           0.86804704427583      2.45621665906582     -3.19744298661725
  O           2.52924179389532      2.92805272112263     -0.73651588602365
  O           2.17885970164432      0.02180838760135     -3.46226501616743
  O           3.78888847203200      0.69200178642733     -1.18404190354844
  O          -3.92634537653787     -0.66613401093069      1.28882813122306
  O          -2.35804577762113      0.04500259318857      3.59644135772014
  O          -2.64257174294923     -2.90781130699362      0.95990242776953
  O          -1.00506812279846     -2.34527797801135      3.37941135804771
  C          -2.16697333017769      1.23546866061418      3.99224105685427
  C          -2.45510897855651      3.93460829149656      0.35759240850300
  C           2.22802101925216      1.14440640651294      3.69145233603824
  C           2.21511817971816      3.76684621571251      0.16420050815794
  C          -2.38555574926665     -3.67587963850227     -0.01449595789551
  C          -2.28924131161392     -1.02792442109606     -3.63260220911937
  C           2.20894242089173     -3.92806329728157     -0.15086287897629
  C           2.09631558188202     -1.20545061910610     -3.78123451768388
  C           0.14457193315744     -2.79092318721892      3.68398083886664
  C           4.32163391556270      0.08228293134045     -0.21258609875754
  C          -4.45213119997147     -0.07718647224640      0.30289990475401
  C          -0.26928637555350      2.97114126199172     -3.43395666663842
  H          -2.71342051818034     -1.20202913650724     -4.66521158584551
  H           2.77261965737436     -4.90457481067385     -0.19340057768191
  H           2.69031988129816      1.35072975563880      4.70127435200483
  H          -3.06192518739711      4.88166707309038      0.44654889595055
  H           2.70389010412924     -1.53558703488116     -4.67206046609523
  H          -0.29394999281696      3.80269953257214     -4.19554924516497
  H           2.69555025698361      4.78559954003891      0.08963250590047
  H           5.43421015164672     -0.09841327507536     -0.28170806305695
  H          -2.85203746779188     -4.70327887181484      0.01867980058712
  H          -5.56815939874581      0.08862500827954      0.34988794221499
  H          -2.68365610712346      1.53683534651506      4.94860693654080
  H           0.19004217872114     -3.50879011306153      4.55297881226344
  Al          0.23450993905279     -1.10078712351591     -7.26468627713675
  Al         -1.45894425866254      1.64269034049343     -7.00756166659008
  H           0.13784687176798      2.17245960727085     -6.54372429630113
  H          -1.68229792930787      2.00256334145903     -8.56048189302141
  H          -1.08741776409280     -0.04889078041243     -6.87305831339146
  H           0.30844515121081     -1.27688166271665     -8.86297188759347
  H           1.49274390417084      0.00939138328343     -6.78064503519087
  H          -2.40621833627045      1.96428167596301     -5.74478385594014
  Al          1.73898752916128      1.71609803003833     -7.07685359364990
  H           2.80398599833205      2.27436437915440     -6.01105395166010
  H           1.76675804727582      1.90185238566225     -8.67868986301959
  H           0.20111802297099     -2.23813062634606     -6.12219656673657
