92
Coordinates from ORCA-job run E -4952.480834999845
  Zr         -0.11693217064053      2.12251098918480      1.35576838569013
  Zr          0.00398868220108     -2.00315973085343     -1.67508831658526
  Zr          1.62458663750083     -1.15243349298124      1.26769734422847
  Zr         -1.76082850645129      1.30043869141649     -1.60970849181663
  Zr          1.70844685024780      1.03095374684111     -1.75013593449163
  Zr         -1.83380740564863     -0.90184923968296      1.41915391308901
  O          -1.76197436477611      0.91712978291114      0.44300234201157
  O           1.65031862917111     -0.79749086404472     -0.78288882268450
  O          -0.27988414359939     -1.82932171189349      0.37121893879062
  O           0.16963957205935      1.96928734158854     -0.69103814216406
  O          -0.23502553903649      0.01480005360033     -2.16172131401793
  O           0.10385918705891      0.11215247620824      1.86056666737997
  O          -1.41180476413546      2.21189625462077      3.16472970785455
  O          -1.51633617476312      3.81943130369499      0.93315188842504
  O           1.59592253917698      2.02783612679514      2.82435450132649
  O           1.38904588744453      3.75456647577558      0.86202389608764
  O          -1.45634508706724     -3.66788905748026     -1.14191066704436
  O          -1.72995447527746     -1.93213136628829     -3.08588798026061
  O           1.44392587986661     -3.68213502370309     -1.23525576659941
  O           1.28522226125379     -2.09190365778293     -3.48923497070391
  O           0.99934081509749     -2.55861502851153      2.93301012156134
  O           2.46313489801370     -0.06089256134702      3.08973692096427
  O           2.46029263281409     -3.12159768632677      0.71025347752447
  O           3.65555825253679     -0.31721847205390      0.82107413996721
  O          -3.81358457229667      0.54061742249277     -1.14778084373529
  O          -2.53760549175823      3.30411735805112     -1.02671116654560
  O          -2.56986478623544      0.15914856757537     -3.41157012151919
  O          -1.09943546504895      2.64816219419452     -3.27347404988469
  O           1.15333439801678      2.41017461187901     -3.40251119228876
  O           2.65833009431434      2.80431824586823     -0.77217500326447
  O           2.33391220710921     -0.08171323177063     -3.59160467748283
  O           3.89566744642879      0.54785961321354     -1.26683226930644
  O          -4.00075417074603     -0.45224808280458      0.89218737950840
  O          -2.46986694219887      0.20575324942834      3.25544974930640
  O          -2.74410562791874     -2.71397279704715      0.47705353554630
  O          -1.24705105377633     -2.27153444209643      3.08628531901276
  C          -2.18044302508647      1.35543241866122      3.70390017983267
  C          -2.32440277127903      4.04495259612217     -0.01675993409394
  C           2.23421784960177      1.13203728901671      3.46227872778283
  C           2.28016002702863      3.77450084208340     -0.03475071583672
  C          -2.34483787488777     -3.68999774715523     -0.24285474126371
  C          -2.34426530396203     -1.03533955785087     -3.75583748595127
  C           2.27450803088736     -3.87457229661332     -0.30123826625638
  C           2.05745413587540     -1.23784949022337     -4.02889607999815
  C          -0.14347498203479     -2.77633856208500      3.44792722706490
  C           4.32679619238544     -0.02319159321609     -0.22819160310072
  C          -4.45762426205581      0.16464017000134     -0.11232405952733
  C           0.03907490991556      2.90080585377058     -3.76795327018979
  H          -2.74377463468838     -1.35513454549708     -4.76165235737485
  H           2.91520493590520     -4.79945059922880     -0.36018252110769
  H           2.65957136743575      1.43551195601855      4.46270890745569
  H          -2.91628515948653      5.00337104547423      0.03844938868239
  H           2.54512893792979     -1.54402792470304     -4.99837983767013
  H           0.06976327636154      3.63734201318577     -4.62146401457299
  H           2.81528449141349      4.75566296132394     -0.19232223036897
  H           5.42216063873747     -0.29338132212424     -0.20773057032217
  H          -2.85798754536578     -4.67946493290338     -0.06487669421331
  H          -5.56245965830733      0.39583602303717     -0.10334479244658
  H          -2.65532966872769      1.65153925318973      4.68288568869248
  H          -0.17879067007042     -3.49762934554361      4.31455671235609
  Al          7.52078592698830     -3.35331759057049      4.07304991881021
  Al          5.38944175006747     -1.02210815112641      3.64543030779536
  Al          5.76458094892471     -3.80105793003217      2.01974378637394
  Al          7.45059527678881     -6.34672529462456      3.02604494121661
  Al          2.98843066509071     -5.04261157493392      3.51026874799198
  Al          3.43822995532756     -2.68913421375735      5.92287743075602
  Al          5.03875788533620     -6.81684547126155      5.48851084381912
  Al          2.08662291557654     -5.66900613298952      6.51376833043076
  H           0.85287303938886     -6.29139843105807      7.34447317856044
  H           1.78560890129016     -5.57553707663976      4.85119451690515
  H           3.51664320004543     -6.52879749807896      6.59095572159413
  H           2.49210061735321     -4.09139198968281      6.85470849541714
  H           4.78440618809961     -2.98156412497492      6.76356096227176
  H           2.15454936164508     -1.72763475576239      6.12050357483634
  H           4.29909996149566     -1.40117041956603      4.82796525580045
  H           5.61947157090196      0.51682885270218      3.23195748035149
  H           3.28986922428394     -3.62416838056622      4.43705410559325
  H           5.12850503809633     -2.15505160476220      2.42580487968212
  H           4.25340755289452     -4.51718920248797      2.41177083227232
  H           5.78115465236937     -3.59698114490834      0.41249245206665
  H           6.46637267348147     -5.48624417108379      1.95478807307564
  H           6.38745252810981     -7.05710839859238      4.08303424750129
  H           8.46251377787478     -7.34066138057895      2.25806491083915
  H           4.81430342614693     -8.41359504923381      5.51536359469382
  H           1.94606615516610     -5.62032925845067      2.42737758914986
  H           4.14014362938823     -6.13529061826613      4.15568335573633
  H           8.68148387080718     -3.06139673472050      5.14604379610444
  H           6.82960486853954     -1.66194924046441      4.27405031260270
  H           8.20849938730787     -5.09747926644736      3.85603312322518
  H           7.51594379217688     -3.15002334293856      2.36655873107082
  H           5.94756509872815     -5.75831586618467      6.29949007428990
  H           5.95368311791123     -3.98793539061416      4.00454482097469
