76
Coordinates from ORCA-job run E -3980.536847356057
  Zr         -0.72537497249585      1.71507818160469      1.85860453571952
  Zr          0.38294721574555     -1.66733310733542     -1.65597875655446
  Zr          1.79241805465713     -0.90107522466159      1.41909289680601
  Zr         -2.18942980249631      1.04381168499563     -1.15634720487720
  Zr          1.17657013704856      1.56987230037830     -1.10080599898252
  Zr         -1.59665359211218     -1.58091287057755      1.43087842276222
  O          -1.99508669641813      0.32721371702117      0.73204278828486
  O           1.69663316555668     -0.28640695831241     -0.55321825469604
  O           0.10000707092668     -1.93381876251464      0.33762114683785
  O          -0.58370258667245      2.20001507077914     -0.20744560996992
  O          -0.38319059729448      0.26335484309853     -1.78619415547582
  O          -0.01349235354268     -0.19565531391649      2.07154587311626
  O          -2.07626325867081      1.21982762611432      3.53420197967345
  O          -2.47383557514460      3.08501520305437      1.68389491058261
  O           0.64712775225172      1.76699353353023      3.67971096991584
  O           0.27587414016580      3.82274087013696      1.99221405753113
  O          -0.68759958368891     -3.62601327587540     -1.50075912399614
  O          -1.16990132231211     -1.77008855702455     -3.24151493878960
  O           2.12710080611709     -2.98403945788615     -1.49002023610746
  O           1.64112143864167     -1.04071065122332     -3.37911476989426
  O           1.51683939112535     -2.54312393580683      2.85925398327859
  O           2.26091804071597      0.20520310911763      3.28185533116129
  O           2.96008073064216     -2.58662065831581      0.57721013114801
  O           3.68348292534308      0.17302209249112      1.06348554608441
  O          -4.06898860910924     -0.08651140837515     -0.81714885774971
  O          -3.39749010384283      2.68328684316315     -0.34281227614569
  O          -2.67790919840475     -0.08838219304994     -3.02002150679338
  O          -2.04499436426373      2.64543142732232     -2.74556049247891
  O           0.13289808961002      3.16458672909116     -2.75096180166449
  O           1.53862735628442      2.24127434289875      1.09645608901653
  O           1.98872518873759      1.17633864295720     -3.10648012756234
  O           3.47049580562975      1.63298947276330     -0.67852603574048
  O          -3.74760130148143     -1.62255584329367      0.82206497042687
  O          -2.53940214745220     -0.98124241235585      3.32406779280092
  O          -2.00693119368518     -3.47526751220575      0.33918041536735
  O          -0.70833120771340     -2.94390553556258      2.91456212433028
  C          -2.60606607838294      0.13832699300123      3.91287671744697
  C          -3.30298423953930      3.30584233094425      0.76028314873168
  C           1.63380652545916      1.04464739164241      4.00002890468350
  C           1.35363053088687      3.47377023018200      1.46939350936914
  C          -1.43971839574038     -4.10431829333659     -0.60427349196059
  C          -2.09914739071989     -1.01507943618481     -3.65608565824116
  C           2.94498260573789     -3.17545943834426     -0.53994085493669
  C           2.07487998053715      0.08512755479916     -3.74963977582202
  C           0.48711308844006     -3.14796960670277      3.27599159552500
  C           4.12512678263880      0.95980715152948      0.16369292576165
  C          -4.46324729677859     -0.91160740872108      0.06084084387084
  C          -1.08564366494868      3.34093218648996     -3.12503399766265
  H          -2.45660592945029     -1.20102805208603     -4.68785932045716
  H           3.72564156948863     -3.94075838243787     -0.71016166070100
  H           2.01236216812535      1.16814405052770      5.03438457335499
  H          -4.02950496499334      4.12398991338955      0.92564642300154
  H           2.58203098698409      0.13171197164559     -4.73126714526717
  H          -1.27487332104500      4.17026822281129     -3.83084169098793
  H           2.17650384643391      4.19077910966392      1.29929681977760
  H           5.22797978491768      1.07114014861075      0.13245143138480
  H          -1.64095622590531     -5.19206182395730     -0.65852957557909
  H          -5.55952884687751     -1.03506612638136      0.15889064658030
  H          -3.18979532174221      0.17059877326037      4.85201694199452
  H           0.64838272092941     -3.93635020759308      4.03509218356627
  Al          1.73877238549085      4.24171137281912     -2.89410303637933
  Al          1.24716836443401      7.26732101429091     -2.59185096779907
  H           2.16307070991086      7.37443107525106     -1.15392238313565
  H           2.16881967859964      7.39576689192137     -3.87943563578098
  H           0.86369179082962      5.61480597837527     -2.35985743243437
  H           2.06338101403254      4.14377265832567     -4.44132871610505
  H           3.25150591905118      5.21922902186933     -2.60340332893432
  H          -0.12017582061564      8.03306392330471     -2.31751526434842
  Al          3.66936651017492      8.17772755213890     -0.92197775874297
  H           4.67588740818280      6.94134668983583     -1.51362324664785
  H           3.74070163132891      9.36803638516993     -1.97851497061055
  H           2.13849255943454      3.42430676943198     -1.52030844245300
  Al          4.30264088266979      5.24816737861788     -1.31169203242677
  H           5.66828327888495      4.50406298886005     -1.64463272245968
  H           3.53846177778145      5.19218619870073      0.08815901921534
  H           3.80459020623116      8.31913733889209      0.65514700529007
