76
Coordinates from ORCA-job run E -3975.623450026201
  Zr         -0.73843351047347      1.63684297727398      1.91917221094663
  Zr          0.35282270966939     -1.78851721280917     -1.55147327869420
  Zr          1.62862253422631     -1.15181658339023      1.54624638885751
  Zr         -2.00946678574693      0.97885343314753     -1.15013021091635
  Zr          1.37062992104546      1.40175849836319     -1.06276046975470
  Zr         -1.73773385823519     -1.58219081780298      1.45540097012185
  O          -2.02967846092690      0.31159345850776      0.76332920803978
  O           1.64650435237082     -0.46046393747545     -0.38891926307410
  O          -0.02886969367747     -2.02827444818338      0.42496274703372
  O          -0.35533175505916      1.88559907136426     -0.07199256095271
  O          -0.25937421769517      0.15651859307740     -1.77811769972519
  O          -0.11521250682754     -0.29875957602462      2.13937585447774
  O          -2.05476500109474      1.20081478516830      3.59293954227981
  O          -2.40523856717450      3.03168727018159      1.63366094691556
  O           0.85351488262334      1.68968410634935      3.42932139138619
  O           0.34688572128172      3.57281841945206      1.78027455568967
  O          -0.73390316207031     -3.72269186554345     -1.40022262375143
  O          -1.25009643629055     -1.84014873121290     -3.04992254316959
  O           2.02872623347452     -3.15999401368174     -1.31118286331553
  O           1.64972012314061     -1.30857267883311     -3.24755813861282
  O           1.20103410173346     -2.78719655453693      2.92670970990567
  O           2.09566979578220     -0.17120537592856      3.48213919186462
  O           2.80811415968154     -2.80202797249465      0.74494451652882
  O           3.48201521764275     -0.00443152340985      1.33477110865248
  O          -3.85740054322435     -0.18776696103275     -0.95207644668742
  O          -3.16569447991741      2.66312565125844     -0.42773244263313
  O          -2.48541742681394      0.02396925199552     -3.10186940966939
  O          -1.56707465547598      2.60905306938652     -2.60693914888276
  O           0.60089584564886      3.09942920851994     -2.51376430867486
  O           1.86258683549351      3.11253156177207      0.20513341075789
  O           2.16288557352429      0.84615348207699     -3.00386914410891
  O           3.51671236995455      1.28196005158580     -0.49655815398920
  O          -3.88047081361296     -1.49736998945440      0.86248574034523
  O          -2.65632791252595     -0.92806259442381      3.33011362113610
  O          -2.22052187992124     -3.33920757387099      0.22821897635199
  O          -1.01243361627268     -3.03443027430283      2.90631718592611
  C          -2.64691082392822      0.15664975871859      3.94778001923702
  C          -3.16665711066872      3.26236197590693      0.67414982472209
  C           1.61282537279465      0.86011882813441      3.98902922780654
  C           1.26294297171630      3.88482630963974      0.99774968282337
  C          -1.61571484148744     -4.07349265104143     -0.59254625444367
  C          -2.00627851469287     -1.00790060930073     -3.61032889461643
  C           2.81222751454386     -3.38140320120803     -0.36314177976977
  C           2.16445175286501     -0.23790601264472     -3.63147700040974
  C           0.13967222012731     -3.33635262812095      3.28959855610788
  C           4.05976988326882      0.63124619396222      0.41627151115262
  C          -4.42910717388228     -0.83918114505002     -0.04174614051230
  C          -0.58973617414270      3.26792401293827     -2.95070639459125
  H          -2.28732850344152     -1.22470923299729     -4.64880343433044
  H           3.57254308854058     -4.15586754395811     -0.51708071637592
  H           1.89403438281301      1.07880264289742      5.02702291494603
  H          -3.90630897474009      4.06103575419813      0.80166219764809
  H           2.66691459866470     -0.24392374707255     -4.60542730484789
  H          -0.72624926679750      4.06518199658258     -3.69088015242162
  H           1.59780825886806      4.92990748852751      1.00788419192279
  H           5.15685909571904      0.62510591813816      0.43394675772118
  H          -1.91073873920766     -5.13048499207017     -0.61133165020096
  H          -5.52646674603776     -0.84187205168269     -0.05978942066924
  H          -3.20964201313268      0.20083593157812      4.88749457659810
  H           0.22459465429232     -4.15745395301226      4.01076308703192
  Al          2.04817513396137      4.44188224282832     -2.98672975916747
  Al          0.81514689159920      7.03962215968802     -1.67165839284053
  H           2.27366871732603      7.63809888934954     -1.10528693195666
  H           0.52916797562828      7.61779700252737     -3.10935628897322
  H           1.30887123634467      5.44729947478914     -1.81357339686858
  H           1.54505284374847      4.74079349153063     -4.45505484511250
  H           3.23145764918439      5.85309893632025     -3.08273262128646
  H          -0.18898189765886      7.06260470911913     -0.45358230031491
  Al          3.62350818528273      8.65506081333683     -1.25607154808325
  H           4.62456010132269      7.57497789830686     -2.04046620852420
  H           3.24919973316013      9.79521760161281     -2.27901432521638
  H           3.20161042194034      3.50702531950813     -2.42044263634114
  Al          4.52508753371089      5.84480921768368     -2.06588720078754
  H           5.86395683565010      5.39993873920565     -2.77103763209602
  H           4.10281773223910      5.50491244717940     -0.57828980185032
  H           4.12401695352450      8.87700031166484      0.22208931133199
