84
Coordinates from ORCA-job run E -4468.750976441331
  Zr         -0.15320355583617      2.12658766134020      0.92969621585851
  Zr          0.78289008184044     -2.59197175959106     -0.26888065160110
  Zr          1.91711493298865     -0.69623426646934      2.24503706905196
  Zr         -1.42340744990259      0.16494920970999     -1.59729175206451
  Zr          2.35265209716110      0.56704212938700     -1.25169359888449
  Zr         -1.46643877400884     -0.82811721660714      1.96117203661197
  O          -1.56488871450931      0.57485131295187      0.44679962474114
  O           2.04750871257855     -0.88426993965858      0.14743812278252
  O           0.28710764892159     -1.94887635814617      1.59458806468865
  O           0.50469400383793      1.19716770168532     -0.81281663998174
  O          -0.24120267636762     -1.42121765817542     -1.40608632129139
  O           0.26001895331393      0.48331865488196      2.13637832301016
  O          -1.54525346378052      2.65702121790367      2.54233163787912
  O          -1.63820993582227      3.39147714697492     -0.08812342936986
  O           1.40665665627965      2.83956492264688      2.32136003618337
  O           1.05609564592291      3.74872489117192     -0.07493535278540
  O          -0.83642741232285     -3.92428295814888      0.13616477428235
  O          -2.00560288073116     -3.03964776826183     -3.00169809694645
  O           2.04989761134872     -4.19201665304326      0.99902060977849
  O           2.37735518081735     -3.01491881070967     -1.67129859784557
  O           1.23866369848298     -1.32899177591524      4.21785124350081
  O           2.50852885585117      1.14584200106326      3.33587294858312
  O           2.88795418740615     -2.69922115729082      2.45697732692945
  O           4.06831497845007     -0.28400908084622      1.81936870928350
  O          -3.38011792552365     -0.64521118171445     -0.99142153980264
  O          -2.36715000721327      2.14750566462431     -1.81663910621172
  O          -2.29087707493441     -0.84531021267157     -3.35331153356934
  O          -0.41826640702226      0.98629413419502     -3.42122565610521
  O           1.83717694044750      1.01361544334667     -3.28757887576801
  O           2.79433640719805      2.67065059200412     -1.04678763668964
  O           3.24163010164977     -1.06810665336796     -2.40897168739221
  O           4.27767021790980      0.63526589042447     -0.23887786171553
  O          -3.57465759929954     -0.91690407978259      1.25061810711446
  O          -2.41738555344054      0.69226814273458      3.23701575074399
  O          -2.11241891088646     -2.95216492665506      1.72285979774929
  O          -1.01154071295952     -1.43290039044418      4.03779277275506
  C          -2.29193465527822      1.94957795604683      3.28152801651805
  C          -2.37685889370753      3.18482800827359     -1.09404114676143
  C           2.08780647821512      2.33420487156634      3.26471667211330
  C           2.10586737696687      3.70834952252697     -0.76065637893520
  C          -1.70799015773258     -3.94972232122575      1.07102222436196
  C          -2.29377172791314     -2.04936832882925     -3.73772355989147
  C           2.77021155744002     -3.86233782328227      2.01522075149759
  C           3.18203877488573     -2.33182348754387     -2.36961754368314
  C           0.07532728120051     -1.57593933314557      4.66389699833513
  C           4.73599718283814      0.13698526347653      0.83821434174643
  C          -4.03924985988217     -0.75883393006576      0.08844874814752
  C           0.72397279456656      1.24871672806330     -3.86468453434624
  H          -2.56208520744434     -2.23328941262791     -4.79617957499599
  H           3.32439501996668     -4.67962970098892      2.50887688967166
  H           2.35743287797093      3.00980693230122      4.09850828893808
  H          -3.08886144694978      3.98600784244349     -1.36540502881940
  H           3.89063857034276     -2.89205686342125     -3.00523706507358
  H           0.78824384067010      1.72527530281357     -4.86055579267370
  H           2.49182594243255      4.66620604397042     -1.15694867939590
  H           5.83753690274100      0.08113300138438      0.91940865066474
  H          -2.15032406864037     -4.93370778682246      1.30003888920712
  H          -5.14156641572096     -0.73057933830310     -0.00475425262418
  H          -2.89343517341646      2.48338274797465      4.04034371956195
  H           0.01225581295578     -1.94913020401852      5.70245988041483
  Al          1.13190098073530     -9.43208715207627     -2.23990673119943
  Al          0.20485204312364     -8.29001865674351      0.44314887673626
  H           1.68321903203380     -7.82733220931248     -0.23850083167803
  H          -1.33206575872904     -7.77586555890237      0.17746192795140
  H           0.08663572954214     -9.44167761581843     -0.89983859231788
  H           0.35959988256470    -10.16348065420231     -3.43394829722860
  H           1.24521596195624     -7.79330700744055     -2.60463881408474
  H           0.42983723699435     -9.16368100499322      1.75589268317850
  Al          1.94313296982919     -6.19599293263781      0.43624444687134
  H           1.72866425118944     -5.61168407394520     -1.09662887605481
  H           0.52328857894813     -6.48520906785612      1.25363730662889
  H           2.57803692783332     -9.89203855351396     -1.73152327149835
  Al          0.86679466336311     -6.07851339647370     -2.69405813474490
  H          -0.34989685074629     -6.39963670737204     -1.42201975949826
  H           2.16916450822293     -5.60882330258796     -3.50785961093324
  H           3.35241224102124     -6.54164997952773      1.09836242816451
  Al         -1.97844866832204     -6.84848889551346     -1.36480935239149
  H          -2.99123745896536     -6.12719883050168     -0.35313881036938
  H          -2.25263188303875     -8.16147196854629     -2.22880047812576
  Al         -1.27543525867985     -4.71405182984604     -3.58168639478038
  H          -1.35347165788203     -4.45203288898022     -5.16072359037323
  H          -0.36963407707981     -6.28896089153487     -3.83372046042435
  H           0.10317658830224     -4.38755695799539     -2.59315069425780
  H          -2.34430832935719     -5.61127401418705     -2.68624825572486
