88
Coordinates from ORCA-job run E -4708.472948157060
  Zr          0.14947133926048      2.10901217456398      1.32592309456290
  Zr         -0.02158677256200     -2.22068033747973     -1.38718681529753
  Zr          1.86094705039353     -1.23660521725003      1.38532241427004
  Zr         -1.67904663825299      1.11929532348652     -1.45075339275904
  Zr          1.76778064148925      0.74769471098760     -1.76568143954426
  Zr         -1.58162451426243     -0.87053093046421      1.75329980705126
  O          -1.57106531820341      0.88052325827021      0.62587586507536
  O           1.71397126949760     -1.00578519131911     -0.67034622446952
  O          -0.15600165438321     -1.91512715192143      0.67056145943178
  O           0.30105130155663      1.81772362685465     -0.71870252474902
  O          -0.22402607957057     -0.23746634276701     -1.98412940995210
  O           0.40039609189165      0.13601390170374      1.94923732275312
  O          -0.99089712798460      2.36414736316747      3.21742060070067
  O          -1.25146584640897      3.80611122801188      0.89144442362106
  O           1.92677558720265      2.15532485030744      2.68973844947014
  O           1.62021382018691      3.69043619239588      0.61051304318811
  O          -1.62676816732410     -3.62822432894974     -0.70391989942422
  O          -1.70423006127158     -2.20167512781281     -2.87709841157615
  O           1.28864365163514     -3.95377669083140     -0.89118210092332
  O           1.21456152746480     -2.48001045007646     -3.21491422997003
  O           1.33095838218573     -2.32993145196746      3.24524493654950
  O           2.88208596098135      0.10238695181059      2.89389704459805
  O           2.46828621469872     -3.32781843449767      0.94244002202116
  O           3.94527573717309     -0.77487778683827      0.68078096977439
  O          -3.72864731829769      0.41096326496806     -0.83557018969973
  O          -2.38356754388691      3.17736865546696     -0.97375717459496
  O          -2.59992942461430     -0.11923790228061     -3.11782694812795
  O          -1.08510895223661      2.31792674933915     -3.24658030277752
  O           1.15390639119216      2.03339686888823     -3.46891900590029
  O           2.80975616149105      2.53940790686844     -0.94936125338507
  O           2.25222847950902     -0.49203708456220     -3.55490227084141
  O           3.94213021384901      0.23018040412800     -1.36512056416085
  O          -3.75279914809729     -0.51995686359816      1.24199625935975
  O          -2.13188778718995      0.42495967288148      3.50075269207572
  O          -2.57000915914328     -2.82986207736821      1.20896765687705
  O          -0.90001995708157     -2.03227557475397      3.53651363920606
  C          -1.77727906315756      1.59412038489847      3.84822901434989
  C          -2.09668600101885      3.98472380013206     -0.03582364864959
  C           2.66227118565138      1.29161300741378      3.26661050085629
  C           2.48188974503049      3.59401651746679     -0.30771676123513
  C          -2.33687081796272     -3.72900647404708      0.34417916333649
  C          -2.38719809987564     -1.31355466503286     -3.48317788904802
  C           2.13027911403667     -4.15070053110556      0.03717745023774
  C           1.95305825860840     -1.68236528039982     -3.87284173808756
  C           0.23826594851870     -2.47897253395163      3.87325607954570
  C           4.48311839217576     -0.40434495439303     -0.41217008500333
  C          -4.29674884127782      0.01040521496565      0.22911522552888
  C           0.03060979429171      2.52004096156118     -3.81216112315437
  H          -2.87446984132530     -1.63537040201188     -4.44960442926825
  H           2.63092592757733     -5.16102637056267      0.06097120854102
  H           3.19245589456061      1.63241537235126      4.20392695270643
  H          -2.65693062606619      4.96350229161369     -0.02416404156284
  H           2.38940853163407     -2.07603918230645     -4.83508144797275
  H           0.02866772853063      3.19816701436777     -4.71289249465197
  H           3.03888928420031      4.53652194810978     -0.58265498081545
  H           5.57714264526957     -0.66096190025069     -0.53818992318022
  H          -2.83586486800268     -4.72782686974118      0.51415663331732
  H          -5.41938098899759      0.13017351927102      0.27469870378871
  H          -2.20521921059501      1.99179862834677      4.81150034789151
  H           0.28425186607394     -3.06920572846258      4.83133290105963
  Al         -7.53915359975641     -2.54366520239578      2.82334767687455
  Al         -5.26450464717197     -0.90845810117571      4.65613556577399
  Al         -8.64137822069637     -0.14821146109307      1.37999719532474
  Al         -6.85453561009522      1.45208303738886      3.47922129739645
  Al         -8.91708872513179      2.67169483950529      1.44567282783407
  Al         -6.04458894297139      3.65016224993680      1.22571493876518
  Al         -5.41588017923239      4.36526575513513      4.26351592542461
  H          -8.13285143016850     -3.88384329195929      3.48699925799749
  H          -6.69015186428129     -2.41418251916626      1.45378914766204
  H          -5.55607202033015     -0.48793561311128      6.18481131771901
  H          -4.09150484521235     -1.86215719818811      4.12481001132549
  H          -6.74194014248428     -1.63052412248029      4.04146735855242
  H          -8.89058929993273     -1.44674246652955      2.58255623529007
  H          -8.85364319253199     -0.78696973837173     -0.07426274734299
  H          -9.74702515175749      0.98890597563089      1.96961953453818
  H          -7.64686643344473      4.11737191947618      1.18194780147809
  H          -8.18792004554465      2.59922549648674      2.96763675427923
  H          -8.07584885615935      1.75827818153409      0.33848115294173
  H         -10.22396177526605      3.57164749797215      1.19867252040330
  H          -5.47288577461259      4.65974326016437      2.50734069061769
  H          -6.35174996086658      5.52212872043096      4.87649192553967
  H          -3.86296164317207      4.05613092644624      4.54875612926547
  H          -6.24920989095405      2.87202638635640      4.38219192252306
  H          -5.32458378728000      0.56044833211183      3.70931872737421
  H          -7.16903529529487      0.28790526947036      2.08705228739328
  H          -7.79240688504787      0.76916567979924      4.60488533003995
  H          -5.89413537853527      2.15477665678828      1.99473151226909
  H          -5.20577741165539      3.85072798834997     -0.12379823138569
