72
Coordinates from ORCA-job run E -3732.512235916621
  Zr         -0.31187556940878      2.13972471778066      1.44675663742013
  Zr          0.20596431787616     -2.03418059162548     -1.46688320761037
  Zr          1.65753414814445     -0.97985363174291      1.53385295787629
  Zr         -1.83343523597581      1.12458784416382     -1.55767825069238
  Zr          1.66848341827869      1.10775687418045     -1.59115629131747
  Zr         -1.85144164961001     -1.00123056637577      1.50420746546992
  O          -1.83021882877645      0.79702795004080      0.47879037476159
  O           1.69605257525675     -0.67479163634143     -0.52937720024538
  O          -0.19933105890318     -1.87107180887355      0.56181106071750
  O           0.06115423296894      1.98903656179964     -0.60630359329441
  O          -0.17573485449479     -0.06284666099745     -2.02502580996413
  O           0.00671784182153      0.16651382202338      1.97946812648490
  O          -1.82048353964235      2.20156871448192      3.08383644499987
  O          -1.66620119395107      3.80227930282855      0.86252868569572
  O           1.02755947296086      2.19240535941417      3.32461683864664
  O           1.38767957711499      3.54608101046136      1.10233323938496
  O          -1.37977223199842     -3.60093037723495     -1.10663559782057
  O          -1.18974622535867     -2.16521437709358     -3.29118085630679
  O           1.60325410385696     -3.66654023867882     -0.83444707911797
  O           1.69092076055972     -2.12246858497933     -3.12397825662432
  O           1.02493453718374     -2.28999562192627      3.24079669678729
  O           2.31214211070983      0.30946498690990      3.25031622139335
  O           2.56524074767873     -2.95354369937272      1.08671861347249
  O           3.66081298398257     -0.12525597430126      1.08914776475930
  O          -3.96808810557060      0.61242448276409     -1.04428860880074
  O          -2.60914576185488      3.17027175119044     -1.09947815742161
  O          -2.58422708036769     -0.39099512168090     -3.00905967564229
  O          -1.22983419970754      2.34501263871279     -3.31928158023163
  O           1.03521816634599      2.33860104572911     -3.34377314515841
  O           2.51686334225273      3.04165951201518     -0.79741740121210
  O           2.47633147595481     -0.00951193218036     -3.34669312052823
  O           3.86790454680873      0.79055899104317     -0.98082106963203
  O          -4.01331529514831     -0.63338555601042      0.86780994455113
  O          -2.62941348455665      0.09292499906594      3.27747616889109
  O          -2.67445189313562     -2.87106560037701      0.60538607785090
  O          -1.24089052663428     -2.29455993781615      3.21731640193140
  C          -2.51657614542226      1.30233172611497      3.64422922024608
  C          -2.40656284621857      3.98692148870637     -0.15328085051701
  C           1.84708841969683      1.35745241342838      3.80771619075963
  C           2.14549223981417      3.82916789188789      0.12199693889229
  C          -2.23593597123888     -3.76260379590616     -0.18785488058681
  C          -2.08903993910218     -1.36374099252015     -3.67054012162463
  C           2.36686274408000     -3.80696331358285      0.16681005219773
  C           2.38562290809058     -1.22572903500007     -3.69241307797250
  C          -0.11314445767492     -2.64699999958936      3.67584595076117
  C           4.32199576206609      0.23769334645580      0.06057218213914
  C          -4.54031823892526      0.07148151008159     -0.04605340769822
  C          -0.10026901727221      2.67307781342518     -3.79661867656654
  H          -2.51936650825645     -1.53324215278988     -4.70092414204574
  H           2.92588036605607     -4.78203540004586      0.25634161876267
  H           2.22557354077245      1.56653970100378      4.85170505268760
  H          -2.93801406244152      4.97984871213836     -0.21521769728691
  H           2.98183620844242     -1.54300881742404     -4.59555428699727
  H          -0.10931902212198      3.32716372568439     -4.71532043831740
  H           2.54491107787761      4.88392864234407      0.08109453117356
  H           5.43595418397378      0.05494657599268      0.09975167748381
  H          -2.67258166386093     -4.79711961652076     -0.07487301638998
  H          -5.65676387114993      0.22790323779680      0.02781490479925
  H          -3.09714551584198      1.60830558180909      4.56128948299921
  H          -0.12277911140129     -3.35259552891774      4.55608713873644
  Al          3.64524043630379     -4.16852103922236      4.55481560682908
  Al          5.22420776413715     -1.43955445036840      4.60196207257593
  H           3.84181142810400     -0.91478244103312      5.53420192413110
  H           6.25742882803420     -2.07179502665326      5.66578102243077
  H           4.40453525151685     -2.77876225727078      3.81409714822764
  H           4.72237471230454     -4.84167470424161      5.54831642855856
  H           2.56734329002831     -3.25203211202034      5.57875123084146
  H           5.50637019110397     -0.34614425520263      3.45615081168362
  Al          2.61914367885374     -1.74300594842665      6.44898586953573
  H           1.23191178932852     -0.97496005658557      6.13831803344286
  H           3.23919966253598     -2.07396010642120      7.89953017230857
  H           2.77832352683924     -4.93499207241274      3.43136707696077
