16
Coordinates from ORCA-job run E -975.593290603126
  Al          0.67482642740114      1.18613525647432      2.55034500080877
  Al         -0.26342103872155     -0.46760794988093      0.08571915195498
  H           0.50402572715048     -1.93426416731028      0.41078257435905
  H          -1.65883618621694     -0.50512968066829      0.81738809917619
  H           0.77863595395057      0.47161374559697      1.01942946076988
  H          -0.48809182928596      2.24532381954912      2.52021716687850
  H           0.07721103497053     -0.18258665590863      3.31582835411605
  H           0.04333499534761     -0.13011145150985     -1.41843798190276
  Al          1.16127207192715     -2.79739412454183      1.70197248796224
  H          -0.16193888095366     -2.58725629416064      2.72447386083037
  H           1.17015989193106     -4.30794047758082      1.26792098822240
  H           2.16168269152378      1.39804207173126      3.01424258484023
  Al         -0.45590619270614     -1.58889543731875      4.06021272743453
  H          -2.02119181952425     -1.50739948829716      4.18076580425065
  H           0.58293402820544     -1.95145896363863      5.18454503624203
  H           2.34856312500068     -1.93587020253570      2.27882468405658
