12
Coordinates from ORCA-job run E -732.286571435357
  Al     -0.229465      1.518719      2.565333
  Al      0.000121     -0.000507     -0.083536
  H       0.872783     -0.936113      1.069964
  H      -1.104267     -0.908414     -0.771134
  H      -0.863230      0.941627      1.071787
  H      -1.473542      2.184480      3.291334
  H       0.004056      0.000973      3.330927
  H       1.098729      0.903679     -0.785103
  Al      0.255690     -1.515992      2.569382
  H       1.513180     -2.162656      3.289507
  H      -1.180669     -2.143678      2.318759
  H       1.213553      2.126193      2.303140
12
Coordinates from ORCA-job run E -732.286577979354
  Al     -0.229489      1.518315      2.565180
  Al      0.000120     -0.000512     -0.083185
  H       0.872198     -0.935954      1.070083
  H      -1.103785     -0.907846     -0.770526
  H      -0.862602      0.941516      1.071885
  H      -1.472899      2.183809      3.290858
  H       0.004062      0.000970      3.330211
  H       1.098230      0.903066     -0.784560
  Al      0.255710     -1.515588      2.569207
  H       1.512510     -2.162005      3.289033
  H      -1.179933     -2.143162      2.318862
  H       1.212818      2.125700      2.303311
12
Coordinates from ORCA-job run E -732.286584927909
  Al     -0.229615      1.517270      2.564826
  Al      0.000116     -0.000528     -0.082316
  H       0.870481     -0.935613      1.070363
  H      -1.102735     -0.906389     -0.769123
  H      -0.860747      0.941332      1.072097
  H      -1.471440      2.182160      3.289775
  H       0.004077      0.000959      3.328200
  H       1.097115      0.901466     -0.783379
  Al      0.255827     -1.514538      2.568784
  H       1.510968     -2.160416      3.287956
  H      -1.178115     -2.142028      2.319254
  H       1.211008      2.124635      2.303923
12
Coordinates from ORCA-job run E -732.286585247734
  Al     -0.229685      1.517208      2.564844
  Al      0.000114     -0.000531     -0.082304
  H       0.870169     -0.935671      1.070345
  H      -1.102828     -0.906265     -0.769177
  H      -0.860397      0.941433      1.072062
  H      -1.471504      2.182114      3.289820
  H       0.004077      0.000955      3.327916
  H       1.097184      0.901302     -0.783504
  Al      0.255897     -1.514474      2.568784
  H       1.511013     -2.160382      3.288005
  H      -1.178029     -2.142133      2.319420
  H       1.210929      2.124755      2.304149
12
Coordinates from ORCA-job run E -732.286586365704
  Al     -0.230185      1.517045      2.565082
  Al      0.000098     -0.000555     -0.082479
  H       0.868199     -0.936262      1.070100
  H      -1.103677     -0.905477     -0.769859
  H      -0.858167      0.942315      1.071706
  H      -1.472196      2.182079      3.290308
  H       0.004075      0.000928      3.326258
  H       1.097866      0.900244     -0.784686
  Al      0.256400     -1.514302      2.568898
  H       1.511580     -2.160423      3.288518
  H      -1.177609     -2.143180      2.320689
  H       1.210557      2.125897      2.305824
12
Coordinates from ORCA-job run E -732.286586526642
  Al     -0.230303      1.517163      2.565194
  Al      0.000095     -0.000560     -0.082663
  H       0.867835     -0.936525      1.069964
  H      -1.103920     -0.905221     -0.770109
  H      -0.857741      0.942644      1.071545
  H      -1.472396      2.182139      3.290429
  H       0.004070      0.000922      3.326031
  H       1.098066      0.899926     -0.785057
  Al      0.256522     -1.514417      2.568982
  H       1.511751     -2.160501      3.288645
  H      -1.177489     -2.143543      2.321084
  H       1.210451      2.126283      2.306316
12
Coordinates from ORCA-job run E -732.286587116204
  Al     -0.230855      1.517964      2.565801
  Al      0.000079     -0.000585     -0.083743
  H       0.866178     -0.938017      1.069165
  H      -1.105150     -0.903738     -0.771335
  H      -0.855780      0.944451      1.070634
  H      -1.473378      2.182390      3.290899
  H       0.004036      0.000888      3.325126
  H       1.099084      0.898146     -0.786885
  Al      0.257098     -1.515205      2.569457
  H       1.512591     -2.160842      3.289156
  H      -1.176790     -2.145427      2.323186
  H       1.209826      2.128285      2.308898
12
Coordinates from ORCA-job run E -732.286587284424
  Al     -0.231017      1.518361      2.566031
  Al      0.000075     -0.000594     -0.084193
  H       0.865632     -0.938679      1.068803
  H      -1.105664     -0.903034     -0.771690
  H      -0.855122      0.945220      1.070235
  H      -1.473764      2.182354      3.290936
  H       0.004016      0.000876      3.324876
  H       1.099520      0.897339     -0.787459
  Al      0.257273     -1.515595      2.569641
  H       1.512924     -2.160840      3.289207
  H      -1.176493     -2.146137      2.324043
  H       1.209560      2.129038      2.309930
12
Coordinates from ORCA-job run E -732.286587410275
  Al     -0.231075      1.518677      2.566166
  Al      0.000074     -0.000601     -0.084491
  H       0.865252     -0.939237      1.068500
  H      -1.106157     -0.902392     -0.771778
  H      -0.854664      0.945844      1.069909
  H      -1.474122      2.182122      3.290800
  H       0.003995      0.000867      3.324694
  H       1.099955      0.896633     -0.787701
  Al      0.257343     -1.515905      2.569748
  H       1.513245     -2.160630      3.289081
  H      -1.176306     -2.146629      2.324711
  H       1.209400      2.129561      2.310720
12
Coordinates from ORCA-job run E -732.286587545618
  Al     -0.231082      1.518958      2.566256
  Al      0.000074     -0.000609     -0.084709
  H       0.864807     -0.939847      1.068176
  H      -1.106817     -0.901655     -0.771703
  H      -0.854139      0.946515      1.069565
  H      -1.474612      2.181669      3.290533
  H       0.003969      0.000859      3.324415
  H       1.100557      0.895835     -0.787782
  Al      0.257364     -1.516178      2.569811
  H       1.513696     -2.160198      3.288821
  H      -1.176199     -2.147108      2.325422
  H       1.209323      2.130069      2.311554
12
Coordinates from ORCA-job run E -732.286587777698
  Al     -0.231059      1.519392      2.566374
  Al      0.000076     -0.000627     -0.085007
  H       0.863838     -0.941020      1.067567
  H      -1.108245     -0.900217     -0.771439
  H      -0.853014      0.947804      1.068916
  H      -1.475693      2.180617      3.289949
  H       0.003916      0.000843      3.323721
  H       1.101871      0.894283     -0.787819
  Al      0.257367     -1.516595      2.569877
  H       1.514700     -2.159185      3.288250
  H      -1.176109     -2.148012      2.326801
  H       1.209292      2.131028      2.313172
12
Coordinates from ORCA-job run E -732.286587976575
  Al     -0.231015      1.519718      2.566451
  Al      0.000077     -0.000647     -0.085208
  H       0.862730     -0.942207      1.066964
  H      -1.109814     -0.898760     -0.771129
  H      -0.851745      0.949110      1.068271
  H      -1.476902      2.179431      3.289337
  H       0.003864      0.000827      3.322866
  H       1.103324      0.892710     -0.787812
  Al      0.257348     -1.516901      2.569902
  H       1.515830     -2.158039      3.287646
  H      -1.176115     -2.148944      2.328230
  H       1.209360      2.132012      2.314842
12
Coordinates from ORCA-job run E -732.286588066800
  Al     -0.230981      1.519775      2.566462
  Al      0.000077     -0.000657     -0.085237
  H       0.862095     -0.942795      1.066674
  H      -1.110650     -0.898059     -0.770991
  H      -0.851034      0.949756      1.067960
  H      -1.477559      2.178785      3.289042
  H       0.003841      0.000819      3.322347
  H       1.104104      0.891956     -0.787808
  Al      0.257323     -1.516948      2.569888
  H       1.516449     -2.157409      3.287353
  H      -1.176184     -2.149432      2.328975
  H       1.209459      2.132519      2.315696
12
Coordinates from ORCA-job run E -732.286588090291
  Al     -0.230965      1.519702      2.566447
  Al      0.000076     -0.000659     -0.085202
  H       0.861988     -0.942870      1.066642
  H      -1.110744     -0.898004     -0.771027
  H      -0.850930      0.949829      1.067926
  H      -1.477638      2.178698      3.289025
  H       0.003843      0.000820      3.322263
  H       1.104199      0.891905     -0.787829
  Al      0.257304     -1.516874      2.569876
  H       1.516529     -2.157318      3.287334
  H      -1.176223     -2.149516      2.329097
  H       1.209502      2.132596      2.315809
12
Coordinates from ORCA-job run E -732.286588103885
  Al     -0.230948      1.519634      2.566437
  Al      0.000074     -0.000659     -0.085185
  H       0.861976     -0.942902      1.066627
  H      -1.110713     -0.898015     -0.771111
  H      -0.850938      0.949846      1.067915
  H      -1.477614      2.178700      3.289039
  H       0.003848      0.000821      3.322283
  H       1.104179      0.891935     -0.787868
  Al      0.257284     -1.516807      2.569874
  H       1.516514     -2.157311      3.287344
  H      -1.176234     -2.149566      2.329163
  H       1.209512      2.132632      2.315842
12
Coordinates from ORCA-job run E -732.286588120250
  Al     -0.230917      1.519569      2.566434
  Al      0.000071     -0.000658     -0.085196
  H       0.861936     -0.943035      1.066555
  H      -1.110704     -0.897943     -0.771261
  H      -0.850930      0.949953      1.067852
  H      -1.477596      2.178666      3.289025
  H       0.003854      0.000825      3.322334
  H       1.104187      0.891894     -0.787941
  Al      0.257247     -1.516742      2.569885
  H       1.516511     -2.157263      3.287323
  H      -1.176219     -2.149709      2.329361
  H       1.209499      2.132752      2.315988
12
Coordinates from ORCA-job run E -732.286588130474
  Al     -0.230886      1.519562      2.566443
  Al      0.000069     -0.000658     -0.085241
  H       0.861851     -0.943244      1.066443
  H      -1.110770     -0.897770     -0.771386
  H      -0.850871      0.950138      1.067747
  H      -1.477632      2.178579      3.288963
  H       0.003856      0.000827      3.322370
  H       1.104265      0.891748     -0.788004
  Al      0.257214     -1.516734      2.569905
  H       1.516558     -2.157162      3.287256
  H      -1.176183     -2.149904      2.329640
  H       1.209468      2.132927      2.316224
12
Coordinates from ORCA-job run E -732.286588133397
  Al     -0.230875      1.519594      2.566450
  Al      0.000068     -0.000657     -0.085277
  H       0.861779     -0.943379      1.066370
  H      -1.110846     -0.897634     -0.771426
  H      -0.850812      0.950258      1.067679
  H      -1.477682      2.178510      3.288907
  H       0.003855      0.000828      3.322376
  H       1.104346      0.891626     -0.788017
  Al      0.257203     -1.516765      2.569918
  H       1.516614     -2.157086      3.287197
  H      -1.176157     -2.150021      2.329808
  H       1.209446      2.133037      2.316375
