12
Coordinates from ORCA-job run E -731.945468050002
  Al         -0.25857897735203      1.53970152086249      2.58100707556867
  Al         -0.00025202827312      0.00166980257224     -0.11348385004596
  H           0.81675422298615     -1.09024817836154      0.98753890235461
  H          -1.19461401052292     -0.83635932088049     -0.80631994659669
  H          -0.82844250683097      1.07303631723136      0.99758007039453
  H          -1.55772487815155      2.15573397638448      3.31557278095930
  H           0.00178299022687     -0.00232362646436      3.33137382028735
  H           1.20410367730344      0.84466074093246     -0.78196856657263
  Al          0.28139625483212     -1.54753944819408      2.58785881781108
  H           1.61674366960820     -2.10514311888157      3.30305864695401
  H          -1.19529666022440     -2.18036871055349      2.40440071760126
  H           1.22106824639820      2.15549004535250      2.36374153128447
