12
Coordinates from ORCA-job run E -731.923831662683
  Al     -0.290400      1.462690      2.547080
  Al      0.000000      0.000000      0.000000
  H       0.843190     -1.128760      0.963670
  H      -1.048990     -0.783770     -0.912390
  H      -0.833610      1.133940      0.965190
  H      -1.395550      2.308350      3.328860
  H      -0.000000      0.000000      3.372030
  H       1.040310      0.778650     -0.926760
  Al      0.313310     -1.459560      2.549740
  H       1.438820     -2.280270      3.329350
  H      -1.029590     -2.320930      2.483270
  H       1.069450      2.297970      2.470320
12
Coordinates from ORCA-job run E -731.928979473906
  Al     -0.285418      1.472858      2.550674
  Al      0.000211      0.000187     -0.013161
  H       0.849169     -1.120574      0.967967
  H      -1.066566     -0.798325     -0.903699
  H      -0.841962      1.123033      0.970798
  H      -1.416195      2.296882      3.331759
  H       0.000190      0.000069      3.371371
  H       1.059360      0.795371     -0.915782
  Al      0.308839     -1.470187      2.553947
  H       1.460383     -2.267914      3.332251
  H      -1.056115     -2.308419      2.469847
  H       1.095044      2.285329      2.454388
12
Coordinates from ORCA-job run E -731.935871906768
  Al     -0.279881      1.488107      2.557341
  Al      0.000082      0.000516     -0.036190
  H       0.847047     -1.116108      0.970980
  H      -1.101923     -0.813252     -0.886335
  H      -0.844227      1.113708      0.975967
  H      -1.455721      2.269437      3.334179
  H       0.000513     -0.000720      3.366376
  H       1.098480      0.813714     -0.891428
  Al      0.303016     -1.488166      2.561660
  H       1.504387     -2.235441      3.333065
  H      -1.097744     -2.282849      2.452739
  H       1.132911      2.259362      2.432007
12
Coordinates from ORCA-job run E -731.939369398502
  Al     -0.276991      1.497467      2.562043
  Al     -0.000307      0.000726     -0.051691
  H       0.841713     -1.114222      0.972591
  H      -1.125729     -0.819304     -0.871818
  H      -0.841977      1.108839      0.978730
  H      -1.481314      2.247447      3.333632
  H       0.000622     -0.001648      3.360799
  H       1.125492      0.821371     -0.870438
  Al      0.299362     -1.500232      2.566947
  H       1.534151     -2.208055      3.330104
  H      -1.122719     -2.262215      2.442054
  H       1.154638      2.238135      2.417407
12
Coordinates from ORCA-job run E -731.943036855489
  Al     -0.271955      1.511931      2.569260
  Al     -0.000722      0.001035     -0.075062
  H       0.831685     -1.109731      0.975874
  H      -1.157744     -0.825775     -0.847414
  H      -0.836467      1.100020      0.983508
  H      -1.515850      2.211906      3.329600
  H       0.000893     -0.002716      3.350570
  H       1.162110      0.829780     -0.836104
  Al      0.293573     -1.518208      2.574891
  H       1.573495     -2.165184      3.321805
  H      -1.154993     -2.229460      2.427060
  H       1.182914      2.204715      2.396373
12
Coordinates from ORCA-job run E -731.945199977715
  Al     -0.263100      1.532184      2.578479
  Al     -0.000608      0.001470     -0.104888
  H       0.818964     -1.098976      0.982642
  H      -1.190819     -0.833201     -0.814537
  H      -0.829017      1.083643      0.992129
  H      -1.552582      2.165665      3.320148
  H       0.001540     -0.003034      3.335932
  H       1.199747      0.839898     -0.792056
  Al      0.285100     -1.540889      2.584953
  H       1.612650     -2.113658      3.307676
  H      -1.189131     -2.188486      2.409157
  H       1.214195      2.163694      2.370727
12
Coordinates from ORCA-job run E -731.945468050002
  Al     -0.258579      1.539702      2.581007
  Al     -0.000252      0.001670     -0.113484
  H       0.816754     -1.090248      0.987539
  H      -1.194614     -0.836359     -0.806320
  H      -0.828443      1.073036      0.997580
  H      -1.557725      2.155734      3.315573
  H       0.001783     -0.002324      3.331374
  H       1.204104      0.844661     -0.781969
  Al      0.281396     -1.547539      2.587859
  H       1.616744     -2.105143      3.303059
  H      -1.195297     -2.180369      2.404401
  H       1.221068      2.155490      2.363742
