12
Coordinates from ORCA-job run_IRC_Full E -731.740252222355
  Al     -0.204468      1.368734      2.350563
  Al     -0.102405      0.316829     -0.067748
  H       0.623503     -0.079824      1.567312
  H      -1.213351     -0.858357     -0.384811
  H      -0.980805      1.854456      0.535339
  H      -0.601090      4.146763      2.467741
  H      -3.287583     -0.572803      3.266935
  H       1.052807      0.823825     -1.166477
  Al      0.288443     -1.651328      2.780273
  H       2.380133     -0.093859      4.010275
  H       0.119816     -4.870430      1.983608
  H       2.439247     -0.547929      2.837676
12
Coordinates from ORCA-job run_IRC_Full E -731.738721357895
  Al     -0.203897      1.368115      2.350912
  Al     -0.102233      0.316515     -0.068797
  H       0.623760     -0.080027      1.567689
  H      -1.213301     -0.858258     -0.384731
  H      -0.981200      1.855012      0.535166
  H      -0.601321      4.147854      2.467764
  H      -3.288061     -0.572898      3.267030
  H       1.052636      0.823769     -1.166212
  Al      0.289131     -1.651629      2.780422
  H       2.379807     -0.092234      4.014156
  H       0.119790     -4.870385      1.983615
  H       2.439139     -0.549756      2.833672
12
Coordinates from ORCA-job run_IRC_Full E -731.737174065802
  Al     -0.203320      1.367486      2.351240
  Al     -0.102059      0.316204     -0.069819
  H       0.624012     -0.080227      1.568076
  H      -1.213258     -0.858166     -0.384656
  H      -0.981603      1.855577      0.534989
  H      -0.601552      4.148942      2.467788
  H      -3.288540     -0.572994      3.267125
  H       1.052472      0.823716     -1.165957
  Al      0.289823     -1.651931      2.780569
  H       2.379481     -0.090590      4.018086
  H       0.119764     -4.870340      1.983621
  H       2.439030     -0.551602      2.829621
12
Coordinates from ORCA-job run_IRC_Full E -731.735612392375
  Al     -0.202736      1.366846      2.351547
  Al     -0.101883      0.315897     -0.070811
  H       0.624261     -0.080424      1.568473
  H      -1.213221     -0.858079     -0.384585
  H      -0.982014      1.856153      0.534809
  H      -0.601784      4.150027      2.467813
  H      -3.289018     -0.573088      3.267220
  H       1.052314      0.823667     -1.165711
  Al      0.290517     -1.652232      2.780713
  H       2.379156     -0.088929      4.022062
  H       0.119736     -4.870296      1.983628
  H       2.438920     -0.553466      2.825528
12
Coordinates from ORCA-job run_IRC_Full E -731.734038240326
  Al     -0.202147      1.366196      2.351834
  Al     -0.101704      0.315594     -0.071775
  H       0.624506     -0.080618      1.568880
  H      -1.213191     -0.857997     -0.384519
  H      -0.982432      1.856738      0.534624
  H      -0.602015      4.151109      2.467838
  H      -3.289495     -0.573183      3.267316
  H       1.052162      0.823621     -1.165477
  Al      0.291214     -1.652534      2.780854
  H       2.378834     -0.087253      4.026081
  H       0.119709     -4.870252      1.983634
  H       2.438810     -0.555344      2.821395
12
Coordinates from ORCA-job run_IRC_Full E -731.732453570707
  Al     -0.201552      1.365534      2.352100
  Al     -0.101522      0.315294     -0.072712
  H       0.624746     -0.080810      1.569297
  H      -1.213167     -0.857922     -0.384457
  H      -0.982859      1.857335      0.534435
  H      -0.602247      4.152190      2.467864
  H      -3.289973     -0.573276      3.267411
  H       1.052017      0.823578     -1.165252
  Al      0.291913     -1.652835      2.780992
  H       2.378513     -0.085564      4.030139
  H       0.119681     -4.870209      1.983640
  H       2.438699     -0.557236      2.817228
12
Coordinates from ORCA-job run_IRC_Full E -731.730860256806
  Al     -0.200949      1.364861      2.352347
  Al     -0.101338      0.314996     -0.073621
  H       0.624982     -0.080999      1.569724
  H      -1.213149     -0.857853     -0.384400
  H      -0.983294      1.857942      0.534241
  H      -0.602480      4.153268      2.467890
  H      -3.290450     -0.573370      3.267506
  H       1.051879      0.823539     -1.165038
  Al      0.292615     -1.653137      2.781128
  H       2.378195     -0.083863      4.034232
  H       0.119652     -4.870167      1.983647
  H       2.438588     -0.559140      2.813028
12
Coordinates from ORCA-job run_IRC_Full E -731.729260215716
  Al     -0.200341      1.364177      2.352575
  Al     -0.101152      0.314700     -0.074505
  H       0.625214     -0.081186      1.570160
  H      -1.213139     -0.857789     -0.384348
  H      -0.983737      1.858559      0.534044
  H      -0.602712      4.154346      2.467917
  H      -3.290927     -0.573463      3.267602
  H       1.051747      0.823503     -1.164834
  Al      0.293319     -1.653440      2.781260
  H       2.377880     -0.082152      4.038357
  H       0.119623     -4.870125      1.983653
  H       2.438476     -0.561055      2.808801
12
Coordinates from ORCA-job run_IRC_Full E -731.727655201876
  Al     -0.199726      1.363481      2.352783
  Al     -0.100963      0.314406     -0.075363
  H       0.625441     -0.081370      1.570607
  H      -1.213134     -0.857730     -0.384300
  H      -0.984189      1.859188      0.533842
  H      -0.602946      4.155423      2.467945
  H      -3.291404     -0.573555      3.267697
  H       1.051621      0.823471     -1.164639
  Al      0.294024     -1.653743      2.781390
  H       2.377568     -0.080432      4.042512
  H       0.119594     -4.870085      1.983659
  H       2.438365     -0.562977      2.804550
12
Coordinates from ORCA-job run_IRC_Full E -731.726046869700
  Al     -0.199105      1.362773      2.352973
  Al     -0.100771      0.314112     -0.076196
  H       0.625664     -0.081552      1.571062
  H      -1.213136     -0.857677     -0.384257
  H      -0.984650      1.859828      0.533637
  H      -0.603180      4.156500      2.467974
  H      -3.291880     -0.573647      3.267793
  H       1.051502      0.823442     -1.164455
  Al      0.294730     -1.654047      2.781518
  H       2.377260     -0.078704      4.046693
  H       0.119564     -4.870045      1.983665
  H       2.438253     -0.564907      2.800276
12
Coordinates from ORCA-job run_IRC_Full E -731.724436865911
  Al     -0.198477      1.362053      2.353146
  Al     -0.100576      0.313820     -0.077007
  H       0.625881     -0.081732      1.571528
  H      -1.213144     -0.857629     -0.384218
  H      -0.985119      1.860479      0.533427
  H      -0.603414      4.157577      2.468003
  H      -3.292356     -0.573738      3.267888
  H       1.051389      0.823416     -1.164280
  Al      0.295438     -1.654352      2.781642
  H       2.376956     -0.076971      4.050898
  H       0.119534     -4.870006      1.983670
  H       2.438141     -0.566842      2.795985
12
Coordinates from ORCA-job run_IRC_Full E -731.722826921915
  Al     -0.197845      1.361321      2.353301
  Al     -0.100379      0.313528     -0.077795
  H       0.626094     -0.081910      1.572002
  H      -1.213159     -0.857586     -0.384183
  H      -0.985598      1.861142      0.533213
  H      -0.603650      4.158656      2.468033
  H      -3.292832     -0.573829      3.267984
  H       1.051281      0.823394     -1.164114
  Al      0.296146     -1.654659      2.781765
  H       2.376657     -0.075232      4.055123
  H       0.119503     -4.869968      1.983676
  H       2.438029     -0.568782      2.791678
12
Coordinates from ORCA-job run_IRC_Full E -731.721218273384
  Al     -0.197204      1.360577      2.353440
  Al     -0.100179      0.313236     -0.078562
  H       0.626303     -0.082086      1.572485
  H      -1.213179     -0.857548     -0.384152
  H      -0.986085      1.861816      0.532995
  H      -0.603886      4.159736      2.468063
  H      -3.293307     -0.573919      3.268079
  H       1.051180      0.823376     -1.163956
  Al      0.296854     -1.654967      2.781886
  H       2.376363     -0.073490      4.059367
  H       0.119473     -4.869931      1.983681
  H       2.437918     -0.570724      2.787358
12
Coordinates from ORCA-job run_IRC_Full E -731.719612598598
  Al     -0.196557      1.359820      2.353563
  Al     -0.099980      0.312947     -0.079310
  H       0.626506     -0.082260      1.572976
  H      -1.213205     -0.857514     -0.384126
  H      -0.986580      1.862501      0.532773
  H      -0.604123      4.160820      2.468094
  H      -3.293782     -0.574009      3.268175
  H       1.051083      0.823360     -1.163807
  Al      0.297562     -1.655277      2.782004
  H       2.376074     -0.071745      4.063627
  H       0.119441     -4.869895      1.983686
  H       2.437807     -0.572667      2.783028
12
Coordinates from ORCA-job run_IRC_Full E -731.718011062189
  Al     -0.195904      1.359052      2.353671
  Al     -0.099774      0.312652     -0.080040
  H       0.626705     -0.082433      1.573475
  H      -1.213237     -0.857484     -0.384103
  H      -0.987085      1.863197      0.532547
  H      -0.604362      4.161906      2.468126
  H      -3.294257     -0.574098      3.268270
  H       1.050992      0.823348     -1.163667
  Al      0.298269     -1.655589      2.782120
  H       2.375790     -0.069999      4.067901
  H       0.119410     -4.869860      1.983691
  H       2.437698     -0.574611      2.778690
12
Coordinates from ORCA-job run_IRC_Full E -731.716414920562
  Al     -0.195243      1.358271      2.353765
  Al     -0.099565      0.312356     -0.080752
  H       0.626898     -0.082605      1.573981
  H      -1.213274     -0.857459     -0.384084
  H      -0.987598      1.863905      0.532317
  H      -0.604601      4.162996      2.468158
  H      -3.294731     -0.574187      3.268366
  H       1.050906      0.823338     -1.163534
  Al      0.298974     -1.655903      2.782235
  H       2.375513     -0.068253      4.072186
  H       0.119378     -4.869826      1.983695
  H       2.437590     -0.576553      2.774348
12
Coordinates from ORCA-job run_IRC_Full E -731.714825580133
  Al     -0.194577      1.357478      2.353846
  Al     -0.099352      0.312058     -0.081449
  H       0.627087     -0.082776      1.574494
  H      -1.213316     -0.857438     -0.384068
  H      -0.988119      1.864623      0.532084
  H      -0.604842      4.164091      2.468191
  H      -3.295205     -0.574275      3.268461
  H       1.050824      0.823331     -1.163408
  Al      0.299678     -1.656220      2.782348
  H       2.375242     -0.066507      4.076481
  H       0.119346     -4.869793      1.983699
  H       2.437483     -0.578492      2.770002
12
Coordinates from ORCA-job run_IRC_Full E -731.713244107666
  Al     -0.193907      1.356672      2.353914
  Al     -0.099136      0.311758     -0.082131
  H       0.627271     -0.082947      1.575014
  H      -1.213363     -0.857420     -0.384056
  H      -0.988650      1.865353      0.531847
  H      -0.605084      4.165192      2.468225
  H      -3.295679     -0.574363      3.268556
  H       1.050747      0.823327     -1.163289
  Al      0.300379     -1.656540      2.782459
  H       2.374977     -0.064763      4.080783
  H       0.119315     -4.869761      1.983702
  H       2.437379     -0.580428      2.765656
12
Coordinates from ORCA-job run_IRC_Full E -731.711671500468
  Al     -0.193228      1.355855      2.353971
  Al     -0.098917      0.311455     -0.082800
  H       0.627450     -0.083117      1.575540
  H      -1.213415     -0.857406     -0.384048
  H      -0.989189      1.866094      0.531606
  H      -0.605328      4.166298      2.468259
  H      -3.296152     -0.574450      3.268651
  H       1.050673      0.823326     -1.163176
  Al      0.301077     -1.656863      2.782570
  H       2.374720     -0.063023      4.085091
  H       0.119282     -4.869730      1.983705
  H       2.437277     -0.582359      2.761312
12
Coordinates from ORCA-job run_IRC_Full E -731.710108970107
  Al     -0.192546      1.355025      2.354017
  Al     -0.098695      0.311149     -0.083457
  H       0.627624     -0.083288      1.576072
  H      -1.213472     -0.857395     -0.384042
  H      -0.989736      1.866846      0.531361
  H      -0.605573      4.167411      2.468293
  H      -3.296625     -0.574537      3.268746
  H       1.050604      0.823326     -1.163069
  Al      0.301771     -1.657190      2.782679
  H       2.374470     -0.061285      4.089403
  H       0.119250     -4.869701      1.983708
  H       2.437178     -0.584283      2.756971
12
Coordinates from ORCA-job run_IRC_Full E -732.299585278975
  Al     -0.232223      1.505133      2.559927
  Al      0.000199     -0.000512     -0.069910
  H       0.857459     -0.922210      1.079052
  H      -1.089541     -0.898789     -0.756157
  H      -0.847249      0.928376      1.080596
  H      -1.456437      2.172342      3.282063
  H       0.003998      0.000904      3.307084
  H       1.083747      0.893564     -0.771220
  Al      0.258361     -1.502320      2.563621
  H       1.495684     -2.150792      3.280474
  H      -1.163851     -2.124195      2.314690
  H       1.196793      2.106810      2.300139
12
Coordinates from ORCA-job run_IRC_Full E -731.698773964722
  Al     -0.271900      1.655241      2.765838
  Al      0.099094     -0.312173     -0.056362
  H       1.087295     -1.761133      0.582032
  H      -0.965610     -0.940183     -1.128272
  H      -0.704761     -0.010094      1.629830
  H      -2.307300      0.177272      4.095833
  H       3.304620      0.576344      3.345422
  H       1.116890      0.963802     -0.379371
  Al      0.214950     -1.347451      2.344563
  H       0.616898     -4.240298      2.471546
  H      -2.446952      0.621310      2.645672
  H      -0.043592      4.797904      1.843307
12
Coordinates from ORCA-job run_IRC_Full E -731.700183729028
  Al     -0.271278      1.655131      2.765883
  Al      0.099224     -0.312532     -0.055784
  H       1.086723     -1.760434      0.582348
  H      -0.965683     -0.940168     -1.128392
  H      -0.704489     -0.010460      1.629148
  H      -2.307759      0.178573      4.091553
  H       3.304252      0.576228      3.345319
  H       1.116806      0.963768     -0.379290
  Al      0.215656     -1.348049      2.344415
  H       0.616600     -4.238943      2.471527
  H      -2.446790      0.619841      2.649948
  H      -0.043635      4.797585      1.843366
12
Coordinates from ORCA-job run_IRC_Full E -731.701608622563
  Al     -0.270651      1.655032      2.765926
  Al      0.099352     -0.312887     -0.055205
  H       1.086158     -1.759743      0.582660
  H      -0.965756     -0.940156     -1.128515
  H      -0.704214     -0.010826      1.628470
  H      -2.308228      0.179881      4.087264
  H       3.303884      0.576110      3.345215
  H       1.116724      0.963736     -0.379211
  Al      0.216364     -1.348641      2.344261
  H       0.616304     -4.237594      2.471509
  H      -2.446632      0.618361      2.654240
  H      -0.043677      4.797265      1.843426
12
Coordinates from ORCA-job run_IRC_Full E -731.703048114844
  Al     -0.270018      1.654944      2.765968
  Al      0.099477     -0.313239     -0.054622
  H       1.085601     -1.759061      0.582970
  H      -0.965830     -0.940145     -1.128639
  H      -0.703936     -0.011192      1.627798
  H      -2.308706      0.181195      4.082967
  H       3.303513      0.575993      3.345111
  H       1.116644      0.963704     -0.379133
  Al      0.217070     -1.349226      2.344098
  H       0.616009     -4.236251      2.471491
  H      -2.446479      0.616874      2.658548
  H      -0.043718      4.796941      1.843486
12
Coordinates from ORCA-job run_IRC_Full E -731.704501763715
  Al     -0.269380      1.654867      2.766007
  Al      0.099599     -0.313588     -0.054035
  H       1.085051     -1.758388      0.583278
  H      -0.965906     -0.940135     -1.128767
  H      -0.703655     -0.011558      1.627130
  H      -2.309194      0.182515      4.078663
  H       3.303142      0.575874      3.345007
  H       1.116567      0.963675     -0.379057
  Al      0.217774     -1.349805      2.343927
  H       0.615715     -4.234915      2.471473
  H      -2.446329      0.615378      2.662869
  H      -0.043759      4.796615      1.843547
12
Coordinates from ORCA-job run_IRC_Full E -731.705969036160
  Al     -0.268737      1.654800      2.766045
  Al      0.099720     -0.313935     -0.053443
  H       1.084509     -1.757724      0.583582
  H      -0.965983     -0.940127     -1.128897
  H      -0.703372     -0.011923      1.626467
  H      -2.309690      0.183841      4.074355
  H       3.302770      0.575755      3.344902
  H       1.116492      0.963647     -0.378984
  Al      0.218477     -1.350376      2.343748
  H       0.615423     -4.233585      2.471455
  H      -2.446184      0.613876      2.667204
  H      -0.043799      4.796287      1.843608
12
Coordinates from ORCA-job run_IRC_Full E -731.707449448599
  Al     -0.268091      1.654743      2.766081
  Al      0.099837     -0.314279     -0.052845
  H       1.083975     -1.757069      0.583883
  H      -0.966061     -0.940121     -1.129031
  H      -0.703086     -0.012290      1.625811
  H      -2.310194      0.185171      4.070042
  H       3.302396      0.575635      3.344797
  H       1.116419      0.963622     -0.378912
  Al      0.219178     -1.350940      2.343559
  H       0.615132     -4.232262      2.471438
  H      -2.446042      0.612366      2.671550
  H      -0.043839      4.795957      1.843671
12
Coordinates from ORCA-job run_IRC_Full E -731.708942379445
  Al     -0.267442      1.654695      2.766116
  Al      0.099952     -0.314620     -0.052241
  H       1.083448     -1.756423      0.584181
  H      -0.966141     -0.940117     -1.129168
  H      -0.702797     -0.012656      1.625161
  H      -2.310707      0.186506      4.065726
  H       3.302022      0.575514      3.344691
  H       1.116350      0.963599     -0.378843
  Al      0.219876     -1.351497      2.343361
  H       0.614842     -4.230943      2.471422
  H      -2.445903      0.610851      2.675905
  H      -0.043878      4.795625      1.843733
12
Coordinates from ORCA-job run_IRC_Full E -731.710447180362
  Al     -0.266789      1.654656      2.766148
  Al      0.100065     -0.314961     -0.051629
  H       1.082929     -1.755785      0.584476
  H      -0.966223     -0.940115     -1.129309
  H      -0.702505     -0.013024      1.624517
  H      -2.311227      0.187844      4.061409
  H       3.301647      0.575393      3.344586
  H       1.116283      0.963578     -0.378776
  Al      0.220572     -1.352046      2.343152
  H       0.614554     -4.229630      2.471406
  H      -2.445767      0.609331      2.680269
  H      -0.043917      4.795291      1.843796
12
Coordinates from ORCA-job run_IRC_Full E -731.711963154473
  Al     -0.266135      1.654625      2.766179
  Al      0.100176     -0.315300     -0.051009
  H       1.082417     -1.755157      0.584768
  H      -0.966307     -0.940115     -1.129453
  H      -0.702210     -0.013392      1.623880
  H      -2.311754      0.189186      4.057092
  H       3.301270      0.575271      3.344479
  H       1.116219      0.963561     -0.378711
  Al      0.221264     -1.352587      2.342933
  H       0.614267     -4.228322      2.471390
  H      -2.445634      0.607806      2.684638
  H      -0.043955      4.794955      1.843860
12
Coordinates from ORCA-job run_IRC_Full E -731.713489584501
  Al     -0.265478      1.654603      2.766208
  Al      0.100284     -0.315639     -0.050380
  H       1.081914     -1.754537      0.585056
  H      -0.966393     -0.940117     -1.129602
  H      -0.701912     -0.013762      1.623250
  H      -2.312287      0.190530      4.052777
  H       3.300893      0.575149      3.344373
  H       1.116159      0.963546     -0.378649
  Al      0.221954     -1.353120      2.342702
  H       0.613982     -4.227019      2.471375
  H      -2.445503      0.606278      2.689013
  H      -0.043993      4.794618      1.843924
12
Coordinates from ORCA-job run_IRC_Full E -731.715025605064
  Al     -0.264820      1.654588      2.766236
  Al      0.100390     -0.315976     -0.049741
  H       1.081419     -1.753927      0.585341
  H      -0.966481     -0.940121     -1.129756
  H      -0.701610     -0.014133      1.622628
  H      -2.312827      0.191877      4.048464
  H       3.300515      0.575026      3.344266
  H       1.116102      0.963535     -0.378589
  Al      0.222638     -1.353644      2.342459
  H       0.613697     -4.225720      2.471360
  H      -2.445375      0.604747      2.693391
  H      -0.044029      4.794279      1.843989
12
Coordinates from ORCA-job run_IRC_Full E -731.716570401500
  Al     -0.264162      1.654581      2.766262
  Al      0.100494     -0.316314     -0.049090
  H       1.080931     -1.753325      0.585623
  H      -0.966573     -0.940129     -1.129914
  H      -0.701306     -0.014505      1.622013
  H      -2.313372      0.193225      4.044156
  H       3.300136      0.574902      3.344159
  H       1.116049      0.963527     -0.378533
  Al      0.223319     -1.354160      2.342205
  H       0.613414     -4.224425      2.471346
  H      -2.445249      0.603214      2.697769
  H      -0.044066      4.793939      1.844054
12
Coordinates from ORCA-job run_IRC_Full E -731.718123121417
  Al     -0.263502      1.654580      2.766286
  Al      0.100595     -0.316651     -0.048428
  H       1.080451     -1.752732      0.585901
  H      -0.966667     -0.940138     -1.130077
  H      -0.700998     -0.014880      1.621406
  H      -2.313923      0.194574      4.039854
  H       3.299757      0.574777      3.344051
  H       1.116000      0.963522     -0.378479
  Al      0.223996     -1.354667      2.341937
  H       0.613133     -4.223135      2.471332
  H      -2.445124      0.601679      2.702147
  H      -0.044101      4.793597      1.844120
12
Coordinates from ORCA-job run_IRC_Full E -731.719682800590
  Al     -0.262843      1.654586      2.766309
  Al      0.100694     -0.316990     -0.047753
  H       1.079980     -1.752148      0.586175
  H      -0.966764     -0.940150     -1.130246
  H      -0.700688     -0.015255      1.620808
  H      -2.314479      0.195924      4.035559
  H       3.299376      0.574652      3.343944
  H       1.115954      0.963521     -0.378428
  Al      0.224669     -1.355166      2.341656
  H       0.612852     -4.221847      2.471319
  H      -2.445002      0.600144      2.706522
  H      -0.044136      4.793254      1.844186
12
Coordinates from ORCA-job run_IRC_Full E -731.721248391765
  Al     -0.262183      1.654599      2.766331
  Al      0.100792     -0.317328     -0.047065
  H       1.079516     -1.751574      0.586446
  H      -0.966864     -0.940165     -1.130420
  H      -0.700373     -0.015633      1.620218
  H      -2.315039      0.197272      4.031275
  H       3.298995      0.574526      3.343836
  H       1.115913      0.963525     -0.378380
  Al      0.225338     -1.355655      2.341362
  H       0.612572     -4.220563      2.471306
  H      -2.444882      0.598610      2.710893
  H      -0.044171      4.792910      1.844252
12
Coordinates from ORCA-job run_IRC_Full E -731.722818806872
  Al     -0.261524      1.654617      2.766351
  Al      0.100887     -0.317668     -0.046361
  H       1.079060     -1.751007      0.586713
  H      -0.966967     -0.940183     -1.130600
  H      -0.700056     -0.016013      1.619636
  H      -2.315602      0.198620      4.027001
  H       3.298613      0.574400      3.343727
  H       1.115875      0.963532     -0.378336
  Al      0.226001     -1.356135      2.341053
  H       0.612294     -4.219282      2.471294
  H      -2.444763      0.597076      2.715256
  H      -0.044204      4.792565      1.844319
12
Coordinates from ORCA-job run_IRC_Full E -731.724392840150
  Al     -0.260866      1.654641      2.766369
  Al      0.100980     -0.318009     -0.045643
  H       1.078612     -1.750450      0.586977
  H      -0.967074     -0.940203     -1.130786
  H      -0.699736     -0.016395      1.619063
  H      -2.316170      0.199966      4.022742
  H       3.298231      0.574273      3.343619
  H       1.115842      0.963544     -0.378295
  Al      0.226659     -1.356605      2.340730
  H       0.612017     -4.218003      2.471283
  H      -2.444646      0.595544      2.719610
  H      -0.044238      4.792218      1.844386
12
Coordinates from ORCA-job run_IRC_Full E -731.725969437612
  Al     -0.260210      1.654670      2.766386
  Al      0.101072     -0.318351     -0.044907
  H       1.078172     -1.749901      0.587236
  H      -0.967185     -0.940227     -1.130978
  H      -0.699412     -0.016780      1.618499
  H      -2.316740      0.201309      4.018498
  H       3.297847      0.574145      3.343510
  H       1.115814      0.963561     -0.378257
  Al      0.227312     -1.357065      2.340391
  H       0.611740     -4.216727      2.471271
  H      -2.444530      0.594016      2.723953
  H      -0.044270      4.791871      1.844453
12
Coordinates from ORCA-job run_IRC_Full E -731.727547245654
  Al     -0.259554      1.654703      2.766402
  Al      0.101162     -0.318695     -0.044155
  H       1.077740     -1.749361      0.587492
  H      -0.967299     -0.940253     -1.131177
  H      -0.699085     -0.017166      1.617945
  H      -2.317313      0.202649      4.014271
  H       3.297463      0.574016      3.343401
  H       1.115789      0.963582     -0.378223
  Al      0.227960     -1.357516      2.340037
  H       0.611465     -4.215452      2.471261
  H      -2.444416      0.592491      2.728282
  H      -0.044302      4.791523      1.844520
