12
Coordinates from ORCA-job run_IRC_F E -731.698773964722
  Al     -0.271900      1.655241      2.765838
  Al      0.099094     -0.312173     -0.056362
  H       1.087295     -1.761133      0.582032
  H      -0.965610     -0.940183     -1.128272
  H      -0.704761     -0.010094      1.629830
  H      -2.307300      0.177272      4.095833
  H       3.304620      0.576344      3.345422
  H       1.116890      0.963802     -0.379371
  Al      0.214950     -1.347451      2.344563
  H       0.616898     -4.240298      2.471546
  H      -2.446952      0.621310      2.645672
  H      -0.043592      4.797904      1.843307
12
Coordinates from ORCA-job run_IRC_F E -731.700183729028
  Al     -0.271278      1.655131      2.765883
  Al      0.099224     -0.312532     -0.055784
  H       1.086723     -1.760434      0.582348
  H      -0.965683     -0.940168     -1.128392
  H      -0.704489     -0.010460      1.629148
  H      -2.307759      0.178573      4.091553
  H       3.304252      0.576228      3.345319
  H       1.116806      0.963768     -0.379290
  Al      0.215656     -1.348049      2.344415
  H       0.616600     -4.238943      2.471527
  H      -2.446790      0.619841      2.649948
  H      -0.043635      4.797585      1.843366
12
Coordinates from ORCA-job run_IRC_F E -731.701608622563
  Al     -0.270651      1.655032      2.765926
  Al      0.099352     -0.312887     -0.055205
  H       1.086158     -1.759743      0.582660
  H      -0.965756     -0.940156     -1.128515
  H      -0.704214     -0.010826      1.628470
  H      -2.308228      0.179881      4.087264
  H       3.303884      0.576110      3.345215
  H       1.116724      0.963736     -0.379211
  Al      0.216364     -1.348641      2.344261
  H       0.616304     -4.237594      2.471509
  H      -2.446632      0.618361      2.654240
  H      -0.043677      4.797265      1.843426
12
Coordinates from ORCA-job run_IRC_F E -731.703048114844
  Al     -0.270018      1.654944      2.765968
  Al      0.099477     -0.313239     -0.054622
  H       1.085601     -1.759061      0.582970
  H      -0.965830     -0.940145     -1.128639
  H      -0.703936     -0.011192      1.627798
  H      -2.308706      0.181195      4.082967
  H       3.303513      0.575993      3.345111
  H       1.116644      0.963704     -0.379133
  Al      0.217070     -1.349226      2.344098
  H       0.616009     -4.236251      2.471491
  H      -2.446479      0.616874      2.658548
  H      -0.043718      4.796941      1.843486
12
Coordinates from ORCA-job run_IRC_F E -731.704501763715
  Al     -0.269380      1.654867      2.766007
  Al      0.099599     -0.313588     -0.054035
  H       1.085051     -1.758388      0.583278
  H      -0.965906     -0.940135     -1.128767
  H      -0.703655     -0.011558      1.627130
  H      -2.309194      0.182515      4.078663
  H       3.303142      0.575874      3.345007
  H       1.116567      0.963675     -0.379057
  Al      0.217774     -1.349805      2.343927
  H       0.615715     -4.234915      2.471473
  H      -2.446329      0.615378      2.662869
  H      -0.043759      4.796615      1.843547
12
Coordinates from ORCA-job run_IRC_F E -731.705969036160
  Al     -0.268737      1.654800      2.766045
  Al      0.099720     -0.313935     -0.053443
  H       1.084509     -1.757724      0.583582
  H      -0.965983     -0.940127     -1.128897
  H      -0.703372     -0.011923      1.626467
  H      -2.309690      0.183841      4.074355
  H       3.302770      0.575755      3.344902
  H       1.116492      0.963647     -0.378984
  Al      0.218477     -1.350376      2.343748
  H       0.615423     -4.233585      2.471455
  H      -2.446184      0.613876      2.667204
  H      -0.043799      4.796287      1.843608
12
Coordinates from ORCA-job run_IRC_F E -731.707449448599
  Al     -0.268091      1.654743      2.766081
  Al      0.099837     -0.314279     -0.052845
  H       1.083975     -1.757069      0.583883
  H      -0.966061     -0.940121     -1.129031
  H      -0.703086     -0.012290      1.625811
  H      -2.310194      0.185171      4.070042
  H       3.302396      0.575635      3.344797
  H       1.116419      0.963622     -0.378912
  Al      0.219178     -1.350940      2.343559
  H       0.615132     -4.232262      2.471438
  H      -2.446042      0.612366      2.671550
  H      -0.043839      4.795957      1.843671
12
Coordinates from ORCA-job run_IRC_F E -731.708942379445
  Al     -0.267442      1.654695      2.766116
  Al      0.099952     -0.314620     -0.052241
  H       1.083448     -1.756423      0.584181
  H      -0.966141     -0.940117     -1.129168
  H      -0.702797     -0.012656      1.625161
  H      -2.310707      0.186506      4.065726
  H       3.302022      0.575514      3.344691
  H       1.116350      0.963599     -0.378843
  Al      0.219876     -1.351497      2.343361
  H       0.614842     -4.230943      2.471422
  H      -2.445903      0.610851      2.675905
  H      -0.043878      4.795625      1.843733
12
Coordinates from ORCA-job run_IRC_F E -731.710447180362
  Al     -0.266789      1.654656      2.766148
  Al      0.100065     -0.314961     -0.051629
  H       1.082929     -1.755785      0.584476
  H      -0.966223     -0.940115     -1.129309
  H      -0.702505     -0.013024      1.624517
  H      -2.311227      0.187844      4.061409
  H       3.301647      0.575393      3.344586
  H       1.116283      0.963578     -0.378776
  Al      0.220572     -1.352046      2.343152
  H       0.614554     -4.229630      2.471406
  H      -2.445767      0.609331      2.680269
  H      -0.043917      4.795291      1.843796
12
Coordinates from ORCA-job run_IRC_F E -731.711963154473
  Al     -0.266135      1.654625      2.766179
  Al      0.100176     -0.315300     -0.051009
  H       1.082417     -1.755157      0.584768
  H      -0.966307     -0.940115     -1.129453
  H      -0.702210     -0.013392      1.623880
  H      -2.311754      0.189186      4.057092
  H       3.301270      0.575271      3.344479
  H       1.116219      0.963561     -0.378711
  Al      0.221264     -1.352587      2.342933
  H       0.614267     -4.228322      2.471390
  H      -2.445634      0.607806      2.684638
  H      -0.043955      4.794955      1.843860
12
Coordinates from ORCA-job run_IRC_F E -731.713489584501
  Al     -0.265478      1.654603      2.766208
  Al      0.100284     -0.315639     -0.050380
  H       1.081914     -1.754537      0.585056
  H      -0.966393     -0.940117     -1.129602
  H      -0.701912     -0.013762      1.623250
  H      -2.312287      0.190530      4.052777
  H       3.300893      0.575149      3.344373
  H       1.116159      0.963546     -0.378649
  Al      0.221954     -1.353120      2.342702
  H       0.613982     -4.227019      2.471375
  H      -2.445503      0.606278      2.689013
  H      -0.043993      4.794618      1.843924
12
Coordinates from ORCA-job run_IRC_F E -731.715025605064
  Al     -0.264820      1.654588      2.766236
  Al      0.100390     -0.315976     -0.049741
  H       1.081419     -1.753927      0.585341
  H      -0.966481     -0.940121     -1.129756
  H      -0.701610     -0.014133      1.622628
  H      -2.312827      0.191877      4.048464
  H       3.300515      0.575026      3.344266
  H       1.116102      0.963535     -0.378589
  Al      0.222638     -1.353644      2.342459
  H       0.613697     -4.225720      2.471360
  H      -2.445375      0.604747      2.693391
  H      -0.044029      4.794279      1.843989
12
Coordinates from ORCA-job run_IRC_F E -731.716570401500
  Al     -0.264162      1.654581      2.766262
  Al      0.100494     -0.316314     -0.049090
  H       1.080931     -1.753325      0.585623
  H      -0.966573     -0.940129     -1.129914
  H      -0.701306     -0.014505      1.622013
  H      -2.313372      0.193225      4.044156
  H       3.300136      0.574902      3.344159
  H       1.116049      0.963527     -0.378533
  Al      0.223319     -1.354160      2.342205
  H       0.613414     -4.224425      2.471346
  H      -2.445249      0.603214      2.697769
  H      -0.044066      4.793939      1.844054
12
Coordinates from ORCA-job run_IRC_F E -731.718123121417
  Al     -0.263502      1.654580      2.766286
  Al      0.100595     -0.316651     -0.048428
  H       1.080451     -1.752732      0.585901
  H      -0.966667     -0.940138     -1.130077
  H      -0.700998     -0.014880      1.621406
  H      -2.313923      0.194574      4.039854
  H       3.299757      0.574777      3.344051
  H       1.116000      0.963522     -0.378479
  Al      0.223996     -1.354667      2.341937
  H       0.613133     -4.223135      2.471332
  H      -2.445124      0.601679      2.702147
  H      -0.044101      4.793597      1.844120
12
Coordinates from ORCA-job run_IRC_F E -731.719682800590
  Al     -0.262843      1.654586      2.766309
  Al      0.100694     -0.316990     -0.047753
  H       1.079980     -1.752148      0.586175
  H      -0.966764     -0.940150     -1.130246
  H      -0.700688     -0.015255      1.620808
  H      -2.314479      0.195924      4.035559
  H       3.299376      0.574652      3.343944
  H       1.115954      0.963521     -0.378428
  Al      0.224669     -1.355166      2.341656
  H       0.612852     -4.221847      2.471319
  H      -2.445002      0.600144      2.706522
  H      -0.044136      4.793254      1.844186
12
Coordinates from ORCA-job run_IRC_F E -731.721248391765
  Al     -0.262183      1.654599      2.766331
  Al      0.100792     -0.317328     -0.047065
  H       1.079516     -1.751574      0.586446
  H      -0.966864     -0.940165     -1.130420
  H      -0.700373     -0.015633      1.620218
  H      -2.315039      0.197272      4.031275
  H       3.298995      0.574526      3.343836
  H       1.115913      0.963525     -0.378380
  Al      0.225338     -1.355655      2.341362
  H       0.612572     -4.220563      2.471306
  H      -2.444882      0.598610      2.710893
  H      -0.044171      4.792910      1.844252
12
Coordinates from ORCA-job run_IRC_F E -731.722818806872
  Al     -0.261524      1.654617      2.766351
  Al      0.100887     -0.317668     -0.046361
  H       1.079060     -1.751007      0.586713
  H      -0.966967     -0.940183     -1.130600
  H      -0.700056     -0.016013      1.619636
  H      -2.315602      0.198620      4.027001
  H       3.298613      0.574400      3.343727
  H       1.115875      0.963532     -0.378336
  Al      0.226001     -1.356135      2.341053
  H       0.612294     -4.219282      2.471294
  H      -2.444763      0.597076      2.715256
  H      -0.044204      4.792565      1.844319
12
Coordinates from ORCA-job run_IRC_F E -731.724392840150
  Al     -0.260866      1.654641      2.766369
  Al      0.100980     -0.318009     -0.045643
  H       1.078612     -1.750450      0.586977
  H      -0.967074     -0.940203     -1.130786
  H      -0.699736     -0.016395      1.619063
  H      -2.316170      0.199966      4.022742
  H       3.298231      0.574273      3.343619
  H       1.115842      0.963544     -0.378295
  Al      0.226659     -1.356605      2.340730
  H       0.612017     -4.218003      2.471283
  H      -2.444646      0.595544      2.719610
  H      -0.044238      4.792218      1.844386
12
Coordinates from ORCA-job run_IRC_F E -731.725969437612
  Al     -0.260210      1.654670      2.766386
  Al      0.101072     -0.318351     -0.044907
  H       1.078172     -1.749901      0.587236
  H      -0.967185     -0.940227     -1.130978
  H      -0.699412     -0.016780      1.618499
  H      -2.316740      0.201309      4.018498
  H       3.297847      0.574145      3.343510
  H       1.115814      0.963561     -0.378257
  Al      0.227312     -1.357065      2.340391
  H       0.611740     -4.216727      2.471271
  H      -2.444530      0.594016      2.723953
  H      -0.044270      4.791871      1.844453
12
Coordinates from ORCA-job run_IRC_F E -731.727547245654
  Al     -0.259554      1.654703      2.766402
  Al      0.101162     -0.318695     -0.044155
  H       1.077740     -1.749361      0.587492
  H      -0.967299     -0.940253     -1.131177
  H      -0.699085     -0.017166      1.617945
  H      -2.317313      0.202649      4.014271
  H       3.297463      0.574016      3.343401
  H       1.115789      0.963582     -0.378223
  Al      0.227960     -1.357516      2.340037
  H       0.611465     -4.215452      2.471261
  H      -2.444416      0.592491      2.728282
  H      -0.044302      4.791523      1.844520
