12
Coordinates from ORCA-job run_IRC_F E -731.727547245654
  Al         -0.25955397245065      1.65470336153861      2.76640202160737
  Al          0.10116168992904     -0.31869531444672     -0.04415476762040
  H           1.07773985135973     -1.74936128347464      0.58749226336408
  H          -0.96729926059057     -0.94025328606713     -1.13117711344362
  H          -0.69908463476054     -0.01716635890968      1.61794452785047
  H          -2.31731295005814      0.20264897767434      4.01427121500279
  H           3.29746340494172      0.57401627428710      3.34340094931498
  H           1.11578935248020      0.96358173131173     -0.37822271615792
  Al          0.22795998665668     -1.35751616728531      2.34003730686380
  H           0.61146520892849     -4.21545224978391      2.47126080121539
  H          -2.44441636509924      0.59249072518154      2.72828181630936
  H          -0.04430192920644      4.79152315535961      1.84452042869905
