68
Coordinates from ORCA-job run E -3488.522355707764
  Zr         -0.12293677476973      2.04686384151967      1.48014472040144
  Zr          0.12950118338144     -1.98693981877581     -1.64221060853876
  Zr          1.82864813575501     -1.13876549284248      1.28182946085923
  Zr         -1.81697678200264      1.20538295980227     -1.44458219596241
  Zr          1.64304810021570      1.17580879932805     -1.67686420114551
  Zr         -1.63646897472645     -1.11218549687301      1.51547742073679
  O          -1.73988849994490      0.73276220032518      0.57610929221676
  O           1.75348088762085     -0.66471563110948     -0.73789264865717
  O          -0.08005828287017     -1.90341403703565      0.40355090672689
  O           0.08707537829207      1.96877016655210     -0.57034825287051
  O          -0.24462909374514      0.01182172919232     -2.06312691348925
  O           0.25578251844076      0.04818717645435      1.89884280898326
  O          -1.37844324558557      1.99572390083393      3.32402632807140
  O          -1.64613468181987      3.67077157762499      1.17481005328008
  O           1.61435175788752      2.05568806960819      2.87157162587525
  O           1.24490635207121      3.76503437070912      0.95096888088067
  O          -1.26282498730195     -3.70002435046107     -1.12126568508414
  O          -1.59565929819322     -2.00027770136225     -3.05376504111595
  O           1.61469127797998     -3.63728527946199     -1.31733940383590
  O           1.42129024801979     -1.95909999875170     -3.45738876037155
  O           1.33376038550885     -2.53370337670019      2.96317097959567
  O           2.61218932915961      0.01899192724884      3.10824991363236
  O           2.66408253227121     -3.08545111175304      0.61933262156631
  O           3.85215012683847     -0.27749903764724      0.84273030069968
  O          -3.87184532306631      0.42638399593189     -0.96160586770856
  O          -2.66205417848662      3.16059438840861     -0.79323583821973
  O          -2.62774341859360      0.02510389848818     -3.22662287858794
  O          -1.33097979752813      2.58923979623929     -3.13120016626141
  O           0.92402611352274      2.44781372008602     -3.36700732673552
  O           2.35673608699904      3.22228264597553     -0.97079894414508
  O           2.37207805028302      0.10311613732563     -3.48565337538775
  O           3.77627814808457      1.05337652539268     -1.00231216470201
  O          -3.77215599514264     -0.93361122218439      0.86055992394523
  O          -2.36713088693107     -0.05195371045940      3.34193487040415
  O          -2.37131214004523     -3.12720366636552      0.79356989496515
  O          -0.92125308798999     -2.38850259112622      3.19795964283437
  C          -2.13199909038708      1.10059761126002      3.81656147399757
  C          -2.47256421936991      3.87958958451661      0.23638483118111
  C           2.31122277381802      1.18392508147878      3.49273360433614
  C           1.97117324768656      4.01936689914291     -0.06023344431912
  C          -1.99982868303827     -3.93547016481749     -0.11463013432758
  C          -2.31695848657127     -1.12764739946461     -3.64212906968103
  C           2.45709989843882     -3.82778212253442     -0.39017825859413
  C           2.16503482979482     -1.05738469801212     -3.95301937016754
  C           0.23034656286949     -2.81287756358684      3.52213674413170
  C           4.37530204948835      0.38180091824836     -0.10877685923375
  C          -4.37770811583070     -0.20272156574933      0.01879804306095
  C          -0.22780977103747      2.86819554642765     -3.69259467650246
  H          -2.74067432128446     -1.43271516976894     -4.64355646316139
  H           3.08980717055547     -4.75870390113058     -0.46621165242731
  H           2.71861098409703      1.50476813082081      4.49622611760879
  H          -3.11034809722244      4.80602656995935      0.32470545417987
  H           2.69708257831802     -1.31646493746810     -4.91337062285602
  H          -0.27675049896511      3.56662402011339     -4.57719580686560
  H           2.33226899518837      5.08609186676131     -0.15077227071493
  H           5.50318074282556      0.38541974665243     -0.15174284204004
  H          -2.38812548270172     -4.99228477271840     -0.02271708490479
  H          -5.49697076282979     -0.12042124864961      0.14170995867943
  H          -2.65077304037016      1.35981423260376      4.78443599122873
  H           0.27578971959154     -3.51525361056732      4.40380566151142
  Al          5.67992391340537     -2.62095037323757     -2.20927576492764
  Al          6.96903602928716     -3.22859465512081      0.02588337242334
  H           5.95895483404380     -4.04504261813747     -1.19101187728968
  H           8.48082256470898     -3.74974594127606     -0.16410327542895
  H           6.73992862973126     -1.82151321752287     -1.03172191341198
  H           4.18755508789548     -2.09822137689124     -1.96051286585243
  H           6.47700661915726     -2.80260604046229     -3.59581577159608
  H           6.12085234775851     -3.03237654861387      1.37398370154597
