4
Coordinates from ORCA-job run E -243.866781753695
  Al         -1.36506026713472      0.62241387998520     -0.20854901267313
  H          -0.54667242740560      0.41673958940896      1.12739305576183
  H          -1.29828791319114      2.00474181174795     -0.97118017040249
  H          -2.25042939226854     -0.55424528114210     -0.78159387268621
