4
Coordinates from ORCA-job run E -243.866592242939
  Al     -1.365110      0.622413     -0.208480
  H      -0.538579      0.414764      1.140518
  H      -1.297630      2.018238     -0.978666
  H      -2.259130     -0.565764     -0.787303
4
Coordinates from ORCA-job run E -243.866705901356
  Al     -1.365052      0.622391     -0.208528
  H      -0.541580      0.415507      1.135678
  H      -1.297888      2.013247     -0.975889
  H      -2.255930     -0.561495     -0.785192
4
Coordinates from ORCA-job run E -243.866781681668
  Al     -1.365067      0.622408     -0.208537
  H      -0.546817      0.416787      1.127144
  H      -1.298301      2.004471     -0.971037
  H      -2.250265     -0.554016     -0.781500
4
Coordinates from ORCA-job run E -243.866781753542
  Al     -1.365059      0.622410     -0.208546
  H      -0.546666      0.416744      1.127400
  H      -1.298289      2.004742     -0.971182
  H      -2.250435     -0.554246     -0.781602
4
Coordinates from ORCA-job run E -243.866781753695
  Al     -1.365060      0.622414     -0.208549
  H      -0.546672      0.416740      1.127393
  H      -1.298288      2.004742     -0.971180
  H      -2.250429     -0.554245     -0.781594
