60
Coordinates from ORCA-job run E -3000.892792019925
  Zr         -0.17487834845196      2.06051284374216      1.47050804296742
  Zr          0.17487826599573     -2.06051291231224     -1.47050814722761
  Zr          1.72655152514801     -1.12963204510912      1.47890917893216
  Zr         -1.72655137148420      1.12963201739225     -1.47890915829729
  Zr          1.73056460686716      1.02806205151237     -1.54626037558392
  Zr         -1.73056444011101     -1.02806216155378      1.54626050411429
  O          -1.74701305530874      0.78236305066002      0.56651028802131
  O           1.74701315094423     -0.78236308338533     -0.56651013325007
  O          -0.13516087741693     -1.91314045244969      0.55948292119981
  O           0.13516085011152      1.91314033045097     -0.55948297080538
  O          -0.14053047344932     -0.07786242497977     -1.99428448149795
  O           0.14053064509275      0.07786234603500      1.99428443911491
  O          -1.47743724472563      2.10166985622688      3.25651275768782
  O          -1.64903852358298      3.66296428345598      1.02638794276485
  O           1.53160772832313      2.08972054462013      2.89370530926021
  O           1.19931790970363      3.78413837782248      0.96423315173801
  O          -1.19931842220524     -3.78413802225537     -0.96423362454569
  O          -1.53160757522831     -2.08972042223686     -2.89370591860927
  O           1.64903829089056     -3.66296437302412     -1.02638780860024
  O           1.47743721505042     -2.10166987272036     -3.25651265445451
  O           1.11111219616872     -2.47472127557572      3.13697170733772
  O           2.44479938544788      0.04499164442305      3.27257423588475
  O           2.60891617054363     -3.08289665840190      0.94016223478373
  O           3.72958616651032     -0.26986075400893      1.04693470346090
  O          -3.72958573308144      0.26986019222727     -1.04693479039874
  O          -2.60891658921999      3.08289626142724     -0.94016193376406
  O          -2.44479895117741     -0.04499126662713     -3.27257458771723
  O          -1.11111206705964      2.47472161535150     -3.13697150570459
  O           1.14779867650626      2.34724938055681     -3.22231125411656
  O           2.56625100625440      2.85436266933958     -0.59320430806318
  O           2.44106679601334     -0.05509022185977     -3.35106849640873
  O           3.89918122254651      0.67486200778926     -1.01156848464342
  O          -3.89918111562405     -0.67486202394591      1.01156864716340
  O          -2.44106692788258      0.05509027977351      3.35106869703564
  O          -2.56625096761711     -2.85436291188713      0.59320466388933
  O          -1.14779851925100     -2.34724947485724      3.22231138736315
  C          -2.21717930842286      1.21976306632799      3.78714911652675
  C          -2.44962948674127      3.83857794345902      0.06468875531799
  C           2.16575418011028      1.23221077189857      3.58963937082060
  C           2.11204042650135      3.82408629095730      0.09640979544259
  C          -2.11204070416211     -3.82408622924904     -0.09641000765533
  C          -2.16575387434596     -1.23221039453034     -3.58963983606263
  C           2.44962896379949     -3.83857833036708     -0.06468844991277
  C           2.21717917921134     -1.21976298848811     -3.78714895960640
  C          -0.02040319095389     -2.77521117276120      3.61255485594082
  C           4.36760380000919      0.10717644028143      0.01115843861131
  C          -4.36760351139641     -0.10717658112558     -0.01115840845719
  C           0.02040341955222      2.77521139023567     -3.61255455481574
  H          -2.52804847229643     -1.58307583300227     -4.59047877077607
  H           3.08642496094659     -4.75867104757807     -0.10268067994724
  H           2.52804878153711      1.58307640951077      4.59047823818642
  H          -3.08642595173936      4.75867028696333      0.10268121734511
  H           2.72582356042989     -1.50444166806566     -4.74303388949931
  H           0.02959442014230      3.49521078466211     -4.46989847534684
  H           2.59254774329705      4.82088238515240     -0.08123822280513
  H           5.47344028784456     -0.07456750896090      0.02231272461109
  H          -2.59254811861638     -4.82088229687129      0.08123756552081
  H          -5.47343997251879      0.07456752693735     -0.02231282264016
  H          -2.72582371906186      1.50444182716811      4.74303398029072
  H          -0.02959401836670     -3.49521046817056      4.46989883987961
