92
Coordinates from ORCA-job run E -4952.489750078118
  Zr         -0.72515344633272      2.24291306045396      1.23723013890466
  Zr          0.36611042076325     -1.97216589771636     -1.47395253048291
  Zr          1.95564352046257     -0.34876974100481      1.15373428282726
  Zr         -2.34699756396169      0.69850038057902     -1.41778372197990
  Zr          0.98431721421399      1.38306097656418     -2.02515459776422
  Zr         -1.39362429540256     -1.15597780804773      1.71260512166155
  O          -1.99378209553816      0.52032979155463      0.62707477379651
  O           1.65050410275687     -0.24353804277639     -0.91494117816290
  O           0.25695680874840     -1.64564508628415      0.57329979187289
  O          -0.63349029230269      2.01618922548182     -0.83859659988994
  O          -0.56340555869326     -0.18134321967068     -2.03047912545490
  O           0.20508018642390      0.51829433658895      1.80254072921855
  O          -1.90099906296210      2.03358636596074      3.13883191163481
  O          -2.53605582517877      3.43276467442866      0.82562436882149
  O           0.99550531640559      2.76662286589759      3.06698753326487
  O           0.73853031018406      3.76309405133026      0.57752287326898
  O          -0.51753333507828     -3.86026897509580     -0.63231032036573
  O          -1.37838841304313     -2.58707029558270     -2.73494479008345
  O           2.24727254935393     -3.12045083701983     -1.09394444508250
  O           1.42467749633161     -1.88459120924577     -3.42220795074264
  O           1.93692240982855     -1.61221705346971      2.98954376225487
  O           2.56938362595326      1.12775015905686      2.85661067772860
  O           3.26332154831477     -2.06367993635950      0.63733592940808
  O           3.54433769478467      1.01179361062756      0.42767344054311
  O          -4.18979445194590     -0.32139637758988     -0.61544346491206
  O          -3.56845477131600      2.50677319218895     -0.96344013751378
  O          -2.95284752711304     -0.94904920632749     -2.83182641581868
  O          -2.31066244834259      1.85664944436481     -3.31582137412199
  O          -0.12118555716477      2.26224390649848     -3.73876859913294
  O           1.39847228517479      3.55615913688728     -1.58022991571745
  O           1.78462028769388      0.31972257769427     -3.81378115996203
  O           3.22835157393700      1.72179527363887     -1.70917024082584
  O          -3.51583626181676     -1.58901642426633      1.14915789678999
  O          -2.31782513448973     -0.16988902255826      3.45716704600856
  O          -1.61777357218266     -3.35479280933745      1.29876187546349
  O          -0.26030146653314     -1.96081238424705      3.43885415176156
  C          -2.41722555182190      1.05833627807500      3.76174067820768
  C          -3.45372785349043      3.38184746603634     -0.05298497742361
  C           2.05881593045579      2.11209272009412      3.43323257497795
  C           1.13409666471258      4.22830849366550     -0.54736946818420
  C          -1.11672422024670     -4.15409169733929      0.44801517793691
  C          -2.38319202615542     -2.00082898909447     -3.24713288029604
  C           3.18698774836955     -2.96218720984379     -0.25926160162417
  C           1.85891354510863     -0.90990596558609     -4.11193111719513
  C           0.98057256562025     -2.07370939238846      3.68353506161254
  C           3.94509865922713      1.42555274449494     -0.71514478935104
  C          -4.39219155034926     -1.04279255092340      0.40537445552162
  C          -1.36027934764017      2.34090716718050     -4.00136516152020
  H          -2.82944913468920     -2.48692827691834     -4.16201399749693
  H           4.04368417746026     -3.69307973764589     -0.31378942266556
  H           2.56403432990121      2.50244422176065      4.36356291714172
  H          -4.23868655334690      4.18706464298870     -0.01346798106011
  H           2.35803475259013     -1.16647103118684     -5.08957665855426
  H          -1.64348383531859      2.89632522418358     -4.94059900157037
  H           1.27466918208259      5.34512140287360     -0.61109116214036
  H           5.06000969839588      1.55509204610715     -0.83073168292973
  H          -1.23452528280856     -5.25524909584237      0.66947775740444
  H          -5.46996303654764     -1.24062119325557      0.67436284563907
  H          -3.02968239789933      1.30333003529140      4.67739086011465
  H           1.25906944583983     -2.64384227237982      4.61524967183812
  Al         -4.24739464196241      5.23299280154466      3.51371658238230
  Al         -4.48761592754201      8.22126508129471      2.40707443119804
  Al         -3.42890542135960      7.16624931301616      5.27619997604765
  Al         -2.42941873010117      4.14371685346128      5.86387272188940
  Al         -0.27196737164435      7.94231806171910      4.36532560439361
  Al         -1.32425064798630      7.75561444351849      1.17219282841141
  Al          0.47320675859658      4.53268393851389      3.85782618802394
  Al          1.77068395628711      6.97394712737169      2.10931355934968
  H           3.17723302565761      7.23217181828327      1.35435838947371
  H           1.38357016117430      8.04950809723563      3.32362500124503
  H           1.70750795992978      5.46369685069700      2.81496671216005
  H           0.44847088812631      7.07439635390827      1.08163811460107
  H          -1.95848238490182      6.33434321790321      0.75498194216687
  H          -0.95317163478110      9.09331670057356      0.34655542991877
  H          -3.08753543260265      8.50296141486369      1.57530365171122
  H          -5.74304269360819      9.15018346605541      1.99778029119987
  H          -1.09204707231652      8.08998036865173      2.86051989480169
  H          -4.05526581705312      8.36835633750352      4.02945992747462
  H          -1.89067432320439      7.89033753722126      5.12108767556753
  H          -4.16169576360289      7.86455921397113      6.53847737157960
  H          -2.69150883968740      5.77287792459282      6.23754292820497
  H          -0.92287659223409      4.00441298776997      5.22950621674771
  H          -2.76274263817298      3.15495403824067      7.10318492662265
  H           1.48877510377462      4.48539999040721      5.12618394813462
  H           0.24755686452322      9.25627294997067      5.14382857069771
  H          -0.00091683495617      6.33654644665377      4.65514493713400
  H          -4.99211554200021      4.13198912043225      2.60476623493316
  H          -4.79648877612825      6.56698978407585      2.29507624494468
  H          -3.58225976065776      3.94526024206785      4.64574513254080
  H          -4.94483673890264      6.05802542653614      4.83247921283255
  H          -0.77438844358604      4.64231666531068      2.80858862218773
  H          -2.81721967640684      6.12446584248377      3.72070275113208
