64
Coordinates from ORCA-job run E -3244.546290106084
  Zr         -0.17532322490871      1.97161570144023      1.55435931821859
  Zr          0.33467252351791     -2.12859224636401     -1.46173082634320
  Zr          1.90906878118801     -1.16342947849973      1.46596849830253
  Zr         -1.76568646377246      0.98855389660063     -1.38665726416108
  Zr          1.69718740670487      1.05012707161056     -1.57896089669357
  Zr         -1.55237129320966     -1.19670341727642      1.63225970556005
  O          -1.73182378780696      0.58907607482330      0.64285677617762
  O           1.83461230970346     -0.76543750264057     -0.57718541853827
  O           0.05935406855775     -2.04834451321855      0.60277279179169
  O           0.09613997726978      1.82862600032562     -0.49901993469529
  O          -0.13437867108109     -0.16224106311064     -1.96510226675702
  O           0.25979218926676     -0.01137741059098      2.00525834986245
  O          -1.55075824669558      1.96200365903256      3.29761287880697
  O          -1.66429117767205      3.56739667679731      1.09679311774467
  O           1.40780424366432      2.06265513563703      3.13454406399640
  O           1.25110683897417      3.63536819480355      1.04925334651160
  O          -1.02473478784807     -3.90651118676607     -0.95150291497064
  O          -1.32740029056517     -2.28580026551824     -2.96082373789386
  O           1.86697725904521     -3.70242279557594     -1.05512540929010
  O           1.64185296554347     -2.10724197827866     -3.26466781980805
  O           1.41864925485483     -2.53955817642366      3.14561030525252
  O           2.60965215227035      0.12861309195762      3.17905290174056
  O           2.87141262295672     -3.08134015517143      0.87938400888059
  O           3.92310421177549     -0.31099420546291      0.96399156782934
  O          -3.88295684113442      0.32271138948467     -0.84545362421361
  O          -2.64874658254358      2.95897441681155     -0.85024700427871
  O          -2.56900260535994     -0.38327622289563     -2.96643374456207
  O          -1.28853922684494      2.27565689629291     -3.13770616310262
  O           0.97256962431105      2.30091857082990     -3.28187519948277
  O           2.41160161478944      3.04047289536617     -0.81561744208645
  O           2.47028953590122     -0.00082418931606     -3.38347240970944
  O           3.85897219066358      0.88255390504456     -0.97098121074076
  O          -3.99045046334370     -0.77763271066149      1.14559856583026
  O          -2.34235664126471     -0.15163147014820      3.41102662248425
  O          -2.43368232659041     -2.85127068561510      0.47920707777253
  O          -0.84334723865243     -2.48951812238660      3.30030937802932
  C          -2.26492113159207      1.04788620151443      3.81585770133649
  C          -2.47296690304707      3.73981761930619      0.13551749162678
  C           2.20151003934588      1.22379134981024      3.66943921641278
  C           2.01235505229797      3.86806303910488      0.06097517996614
  C          -1.98093513383528     -3.88497993299532     -0.13533222216576
  C          -2.16095175611720     -1.47405203948206     -3.46985590943681
  C           2.69796618819089     -3.85862811121677     -0.10981056988849
  C           2.33070483237942     -1.18878179868187     -3.80631643970106
  C           0.30710889411050     -2.91129618334034      3.63226443948159
  C           4.45167777331877      0.24007784379666     -0.05271932521377
  C          -4.50453551712431     -0.16121575585551      0.13136994412213
  C          -0.19025067843882      2.62445046864884     -3.67140324433016
  H          -2.60166555040834     -1.76381331417705     -4.46732539583610
  H           3.34898672407582     -4.77787397280961     -0.15223559241622
  H           2.60013244001853      1.49739836555669      4.68930458861361
  H          -3.09735978060501      4.67787948066839      0.15766056934538
  H           2.87281080592472     -1.45553970378358     -4.75799963613678
  H          -0.25633550896722      3.28701634271328     -4.58091983162152
  H           2.39264862668775      4.92614657730297     -0.03882486305576
  H           5.57483124298880      0.16587726111745     -0.13580511139701
  H          -2.50882054017075     -4.85859636585139      0.07686993162604
  H          -5.62886838548521     -0.07355931806705      0.13543931713207
  H          -2.88572864131957      1.32196432750450      4.71376046244133
  H           0.34354013053940     -3.68549569244906      4.45074348277217
  Al         -5.18989978299566     -1.56998782652633      2.57081388928830
  H          -5.52603928799753     -0.26723110164727      3.50464787481889
  H          -6.40369127037896     -2.12814364998473      1.62484703115155
  H          -4.14689279520170     -2.66891155890053      3.19094338322754
