12
Coordinates from ORCA-job run E -731.687752108627
  Al         -0.24217658722985      1.52954239263968      2.57281936978142
  Al         -0.00008036019078     -0.00060735930459     -0.09709618987760
  H           0.77564001668649     -0.98303311318382      1.05051214706877
  H          -1.15386609898771     -0.82749116055761     -0.76903125453119
  H          -0.76352019710005      0.99064385333394      1.05110132067171
  H          -1.51186516526336      2.13848284430882      3.26816149683339
  H           0.00264172068425      0.00033270762228      3.25420068910041
  H           1.14601368296620      0.82111401322663     -0.78820571492641
  Al          0.26867355215030     -1.52666473088250      2.57553094783860
  H           1.55033695913814     -2.11545633402240      3.26623788543131
  H          -1.15190323848538     -2.17657119503736      2.39858169705816
  H           1.18704571563177      2.15801808185692      2.38754760555137
