12
Coordinates from ORCA-job run E -732.259480862251
  Al         -0.22933635859060      1.51870265435839      2.56511619422208
  Al          0.00011246487199     -0.00050445076644     -0.08307580059192
  H           0.87264692639412     -0.93611879217572      1.07009506742090
  H          -1.10435938095435     -0.90860822809879     -0.77059702162612
  H          -0.86331131059994      0.94143122133337      1.07197493007935
  H          -1.47373037632519      2.18418016807659      3.29110511370975
  H           0.00402578068240      0.00101877187520      3.33043877335396
  H           1.09900774999710      0.90405743037619     -0.78402412389091
  Al          0.25550403468095     -1.51592340887064      2.56927398998185
  H           1.51350319273939     -2.16222812843491      3.28911136569467
  H          -1.18101559879247     -2.14349892263907      2.31848680442625
  H           1.21389287589662      2.12580168496583      2.30245470722011
