24
Coordinates from ORCA-job run E -1463.985402989119
  Al         -0.17713860276877      1.22025554026011      3.06522302980538
  Al          0.61781962905634     -0.14160257092201      0.20265507572566
  H           1.01859250341491     -1.70000471250226      0.76810484737435
  H          -0.91734991854045     -0.19264826079003     -0.23722988172805
  H           0.70176704710109      0.65547988454388      1.71250702062787
  H          -1.52825428553435      1.89105984043466      2.53427621705526
  H          -0.62056163072267     -0.31811404985580      3.67662805881982
  H           1.88254579501866      0.38337742668974     -0.61899523086526
  Al          0.84733014848161     -3.23052781939834      1.51412058629362
  H          -0.01810673514002     -2.65536611453230      2.86536203666399
  H          -0.21401849861254     -4.04709135911398      0.63917912471602
  H           0.90077205835507      1.85878213285333      4.05850304814593
  Al          0.48976346124725     -1.58269748527167      4.14655497046141
  H          -1.00835763550182     -2.25373704038723      4.86026859687053
  H           1.87739936691224     -1.00452664010243      3.57606127022229
  H           2.29186758878063     -3.70886498188042      1.98016067923880
  Al         -1.70635115058579     -2.97482818811190      6.20860274690322
  H          -2.00192309793702     -4.50973386509867      5.88707138192351
  H          -2.61118551456940     -1.92062471805126      6.99541918356634
  Al          1.25592540225804     -2.36721923201038      6.55811903874829
  H           2.47321735512383     -2.42777897116691      7.57368316243601
  H           0.70908506233162     -0.91313931451948      5.92919730320579
  H           1.34915962703667     -3.05009659395419      5.03870234991388
  H          -0.19563797520515     -3.01497290711244      7.13265538387527
