24
Coordinates from ORCA-job run E -1463.564589527448
  Al     -0.334910      1.128240      2.788780
  Al      0.131570     -0.237880     -0.054440
  H       0.789370     -1.573750      0.561700
  H      -0.972650      0.494050     -1.390510
  H       0.598260      0.612650      1.417690
  H      -1.614440      2.752410      2.151790
  H      -0.504810     -0.419960      3.476290
  H       1.673520      0.345160     -0.444750
  Al      0.695350     -2.986740      1.488620
  H      -0.073070     -2.653160      2.759770
  H       0.002820     -4.241380      0.278850
  H       0.734520      1.939970      4.178890
  Al      0.594870     -1.544490      4.126330
  H      -1.176760     -2.481840      4.882200
  H       2.200160     -1.285750      4.135740
  H       1.505890     -3.983120      2.277150
  Al     -1.131980     -2.841190      6.092940
  H      -0.869040     -4.216760      5.971720
  H      -2.531640     -1.745990      6.618280
  Al      1.216150     -2.472140      6.885860
  H       1.603080     -2.962450      8.343780
  H       0.949860     -0.624710      6.619140
  H       2.204280     -3.608450      5.221360
  H      -0.274040     -3.397340      7.679650
24
Coordinates from ORCA-job run E -1463.624127110228
  Al     -0.335530      1.135996      2.790852
  Al      0.134368     -0.231962     -0.049157
  H       0.789108     -1.577943      0.569413
  H      -0.957069      0.472696     -1.348559
  H       0.593190      0.619832      1.423444
  H      -1.595277      2.701122      2.174341
  H      -0.512258     -0.411410      3.481883
  H       1.666098      0.336790     -0.446492
  Al      0.689816     -2.988029      1.495513
  H      -0.087237     -2.639083      2.785138
  H      -0.004274     -4.212196      0.313463
  H       0.716745      1.925312      4.142443
  Al      0.584294     -1.538053      4.136568
  H      -1.157880     -2.442373      4.818918
  H       2.181102     -1.279642      4.137820
  H       1.538008     -3.983145      2.283210
  Al     -1.140853     -2.830899      6.083592
  H      -0.892361     -4.245908      5.949223
  H      -2.506461     -1.749878      6.607166
  Al      1.220084     -2.472871      6.881551
  H       1.631168     -2.959033      8.338425
  H       0.960227     -0.658041      6.604101
  H       2.173277     -3.597663      5.235713
  H      -0.271926     -3.378238      7.658260
24
Coordinates from ORCA-job run E -1463.677411020822
  Al     -0.336089      1.143080      2.793220
  Al      0.137140     -0.226846     -0.043570
  H       0.789265     -1.583223      0.576619
  H      -0.941862      0.453067     -1.310975
  H       0.587576      0.626062      1.429204
  H      -1.582366      2.657503      2.195529
  H      -0.520233     -0.402897      3.487871
  H       1.659301      0.327292     -0.447092
  Al      0.683196     -2.990575      1.501186
  H      -0.102664     -2.626499      2.810003
  H      -0.012886     -4.188042      0.345772
  H       0.702689      1.912578      4.110030
  Al      0.573439     -1.532057      4.146610
  H      -1.123722     -2.393884      4.746211
  H       2.161613     -1.273901      4.139453
  H       1.570353     -3.983795      2.288575
  Al     -1.152814     -2.821005      6.077235
  H      -0.918083     -4.279936      5.928186
  H      -2.486619     -1.753527      6.598170
  Al      1.223784     -2.473642      6.880748
  H       1.662564     -2.955743      8.335016
  H       0.967259     -0.688920      6.591667
  H       2.145563     -3.588073      5.249312
  H      -0.270044     -3.361640      7.637850
24
Coordinates from ORCA-job run E -1463.740794477345
  Al     -0.338470      1.153836      2.794753
  Al      0.144803     -0.218206     -0.036619
  H       0.790648     -1.589845      0.586546
  H      -0.917307      0.423337     -1.255992
  H       0.579380      0.636136      1.436738
  H      -1.559160      2.580906      2.227139
  H      -0.534525     -0.389635      3.493984
  H       1.654872      0.314219     -0.448570
  Al      0.672996     -2.993849      1.509225
  H      -0.125160     -2.607781      2.842010
  H      -0.027427     -4.150043      0.393553
  H       0.677656      1.893192      4.059374
  Al      0.554223     -1.522965      4.160875
  H      -1.056939     -2.322324      4.664790
  H       2.130199     -1.263984      4.141446
  H       1.616899     -3.977125      2.293260
  Al     -1.172697     -2.809449      6.071025
  H      -0.963756     -4.321495      5.895793
  H      -2.457663     -1.762238      6.586758
  Al      1.228698     -2.478028      6.878087
  H       1.712811     -2.952165      8.325551
  H       0.974165     -0.740098      6.568444
  H       2.097572     -3.571152      5.270969
  H      -0.265461     -3.335866      7.607690
24
Coordinates from ORCA-job run E -1463.810503645043
  Al     -0.343969      1.171011      2.791242
  Al      0.166841     -0.202462     -0.030946
  H       0.797633     -1.596073      0.598138
  H      -0.879332      0.381250     -1.181299
  H       0.569959      0.653707      1.443926
  H      -1.515505      2.445087      2.269725
  H      -0.559027     -0.368338      3.495414
  H       1.663572      0.298950     -0.454035
  Al      0.660645     -2.996872      1.518538
  H      -0.155101     -2.579643      2.877014
  H      -0.050520     -4.091230      0.457717
  H       0.637227      1.867889      3.982975
  Al      0.520993     -1.508067      4.179423
  H      -0.958859     -2.231508      4.604606
  H       2.080731     -1.244858      4.141732
  H       1.685014     -3.951287      2.292535
  Al     -1.207102     -2.802484      6.076161
  H      -1.046443     -4.369772      5.855090
  H      -2.419206     -1.781842      6.588683
  Al      1.235802     -2.491699      6.867881
  H       1.797128     -2.948021      8.298261
  H       0.975342     -0.824076      6.521316
  H       2.012197     -3.538296      5.305406
  H      -0.251662     -3.295984      7.567325
24
Coordinates from ORCA-job run E -1463.858921917579
  Al     -0.346574      1.192184      2.778362
  Al      0.210228     -0.181831     -0.032811
  H       0.818092     -1.597693      0.604519
  H      -0.843506      0.343782     -1.120197
  H       0.569690      0.676551      1.443732
  H      -1.470297      2.298483      2.296339
  H      -0.582359     -0.342936      3.485322
  H       1.697809      0.290079     -0.467634
  Al      0.659437     -2.997450      1.522827
  H      -0.175622     -2.548999      2.896789
  H      -0.073251     -4.032972      0.506709
  H       0.609189      1.856267      3.912310
  Al      0.487061     -1.488618      4.193173
  H      -0.930851     -2.184954      4.604634
  H       2.032531     -1.216803      4.134485
  H       1.763580     -3.905124      2.281289
  Al     -1.256091     -2.816235      6.117766
  H      -1.155901     -4.418042      5.848719
  H      -2.397844     -1.813023      6.647930
  Al      1.244830     -2.514101      6.843193
  H       1.906641     -2.940828      8.242514
  H       0.963674     -0.912730      6.451223
  H       1.909023     -3.491312      5.340635
  H      -0.223131     -3.258315      7.535001
24
Coordinates from ORCA-job run E -1463.893717455091
  Al     -0.340035      1.213143      2.764047
  Al      0.277562     -0.161258     -0.035373
  H       0.853571     -1.600643      0.611642
  H      -0.817687      0.306926     -1.062741
  H       0.583193      0.699383      1.442236
  H      -1.484019      2.202080      2.285192
  H      -0.598246     -0.318815      3.471247
  H       1.757931      0.282898     -0.486352
  Al      0.671832     -3.001678      1.527403
  H      -0.183034     -2.520227      2.908802
  H      -0.099657     -3.983539      0.540991
  H       0.610874      1.858838      3.862567
  Al      0.458168     -1.469997      4.205650
  H      -0.969823     -2.177398      4.639766
  H       1.992727     -1.186228      4.119587
  H       1.854817     -3.846426      2.262996
  Al     -1.312796     -2.848585      6.187481
  H      -1.288004     -4.468801      5.874303
  H      -2.392664     -1.846752      6.755474
  Al      1.256668     -2.545799      6.802391
  H       2.032933     -2.931570      8.155509
  H       0.941898     -0.997376      6.356402
  H       1.795295     -3.436741      5.374705
  H      -0.185144     -3.226056      7.502904
24
Coordinates from ORCA-job run E -1463.920470032124
  Al     -0.327172      1.228208      2.761165
  Al      0.355464     -0.143259     -0.030436
  H       0.892955     -1.607879      0.622911
  H      -0.814921      0.267621     -0.993381
  H       0.602960      0.717752      1.448068
  H      -1.542628      2.127727      2.263473
  H      -0.608478     -0.302744      3.465212
  H       1.828195      0.277088     -0.506298
  Al      0.690161     -3.014630      1.532854
  H      -0.180268     -2.501493      2.917718
  H      -0.139572     -3.949782      0.560978
  H       0.640200      1.869206      3.841303
  Al      0.435550     -1.460520      4.218886
  H      -0.996844     -2.174681      4.688302
  H       1.963830     -1.161455      4.093743
  H       1.950355     -3.782411      2.232742
  Al     -1.364806     -2.886274      6.253162
  H      -1.424841     -4.509889      5.900924
  H      -2.400875     -1.867277      6.858368
  Al      1.267197     -2.575042      6.761705
  H       2.146253     -2.909066      8.064604
  H       0.905114     -1.060023      6.248362
  H       1.694993     -3.391860      5.396899
  H      -0.156461     -3.193937      7.465568
24
Coordinates from ORCA-job run E -1463.942050122167
  Al     -0.307683      1.238404      2.773360
  Al      0.435565     -0.121225     -0.021826
  H       0.929484     -1.613582      0.628273
  H      -0.837480      0.226836     -0.896203
  H       0.625390      0.734734      1.459961
  H      -1.570439      2.018489      2.272575
  H      -0.612719     -0.295452      3.466965
  H       1.897221      0.283404     -0.537183
  Al      0.712660     -3.034683      1.524878
  H      -0.164373     -2.496500      2.910738
  H      -0.192369     -3.922621      0.559937
  H       0.690594      1.880819      3.838575
  Al      0.424366     -1.463522      4.221471
  H      -1.023013     -2.192356      4.751547
  H       1.950677     -1.144678      4.039876
  H       2.045438     -3.712008      2.169538
  Al     -1.417852     -2.931795      6.317091
  H      -1.559462     -4.542560      5.943324
  H      -2.431298     -1.884075      6.943367
  Al      1.270208     -2.580214      6.741308
  H       2.232154     -2.837995      7.999376
  H       0.843352     -1.090171      6.141906
  H       1.623420     -3.372411      5.378848
  H      -0.147481     -3.151461      7.439127
24
Coordinates from ORCA-job run E -1463.958597725567
  Al     -0.282136      1.242142      2.801156
  Al      0.516547     -0.102333     -0.004761
  H       0.961132     -1.622310      0.635636
  H      -0.850729      0.173844     -0.763179
  H       0.651564      0.745012      1.481981
  H      -1.643569      1.936165      2.281216
  H      -0.611929     -0.296990      3.478747
  H       1.961851      0.292686     -0.569841
  Al      0.733452     -3.063281      1.512952
  H      -0.141671     -2.504410      2.897840
  H      -0.244551     -3.896795      0.563541
  H       0.743092      1.883668      3.841526
  Al      0.421244     -1.477590      4.220071
  H      -1.021974     -2.209134      4.814564
  H       1.944331     -1.136931      3.965772
  H       2.126777     -3.647048      2.088755
  Al     -1.468641     -2.970416      6.363910
  H      -1.691628     -4.555386      5.980251
  H      -2.459135     -1.893410      6.994661
  Al      1.274983     -2.573131      6.728090
  H       2.299647     -2.753660      7.943675
  H       0.787554     -1.106466      6.060581
  H       1.561854     -3.360668      5.335710
  H      -0.151704     -3.108178      7.413976
24
Coordinates from ORCA-job run E -1463.969624166715
  Al     -0.265972      1.241301      2.835997
  Al      0.591511     -0.088194      0.016406
  H       0.986565     -1.629254      0.645278
  H      -0.866614      0.105704     -0.620579
  H       0.671396      0.751054      1.509301
  H      -1.642639      1.813818      2.326818
  H      -0.614754     -0.304942      3.494595
  H       2.014696      0.310985     -0.604423
  Al      0.755193     -3.094027      1.500391
  H      -0.112662     -2.522072      2.877666
  H      -0.290962     -3.887763      0.568325
  H       0.788125      1.900388      3.860092
  Al      0.420033     -1.494182      4.213538
  H      -1.029453     -2.237647      4.872439
  H       1.933896     -1.122075      3.874402
  H       2.190344     -3.585238      2.005349
  Al     -1.519679     -3.004978      6.391043
  H      -1.810901     -4.550358      6.010157
  H      -2.494851     -1.895955      7.027269
  Al      1.283020     -2.553115      6.704893
  H       2.353708     -2.666684      7.879546
  H       0.735709     -1.086386      6.019834
  H       1.501157     -3.331310      5.273486
  H      -0.160504     -3.073688      7.385008
24
Coordinates from ORCA-job run E -1463.975448815428
  Al     -0.249312      1.238358      2.875572
  Al      0.653995     -0.084236      0.045201
  H       1.003735     -1.639383      0.663801
  H      -0.849971      0.036139     -0.489371
  H       0.691473      0.749175      1.543886
  H      -1.689572      1.751197      2.354988
  H      -0.615462     -0.313177      3.517878
  H       2.051606      0.321800     -0.625252
  Al      0.768597     -3.124450      1.498098
  H      -0.088818     -2.541622      2.867025
  H      -0.317744     -3.888349      0.593792
  H       0.810683      1.908198      3.874249
  Al      0.420021     -1.510713      4.211128
  H      -1.021801     -2.253026      4.907482
  H       1.916979     -1.108392      3.795735
  H       2.228920     -3.550074      1.946586
  Al     -1.562095     -3.022703      6.392692
  H      -1.907894     -4.532346      6.016681
  H      -2.510464     -1.897627      7.036484
  Al      1.295936     -2.535799      6.664685
  H       2.402310     -2.608696      7.801793
  H       0.709335     -1.061820      6.013307
  H       1.438349     -3.286128      5.213546
  H      -0.162447     -3.050946      7.346843
24
Coordinates from ORCA-job run E -1463.978362695512
  Al     -0.240664      1.234206      2.914309
  Al      0.689518     -0.087954      0.075304
  H       1.009637     -1.648779      0.685000
  H      -0.835989     -0.020144     -0.407663
  H       0.701948      0.742473      1.579680
  H      -1.680724      1.711514      2.401135
  H      -0.618157     -0.320766      3.545031
  H       2.062901      0.330269     -0.632903
  Al      0.775823     -3.149131      1.501919
  H      -0.070847     -2.561548      2.862543
  H      -0.328421     -3.910121      0.620627
  H       0.820753      1.919326      3.901520
  Al      0.420506     -1.525630      4.209045
  H      -1.017822     -2.265006      4.917890
  H       1.899573     -1.094662      3.740628
  H       2.248437     -3.542635      1.917915
  Al     -1.592777     -3.029842      6.373753
  H      -1.963293     -4.517372      6.006240
  H      -2.525056     -1.899964      7.028458
  Al      1.305466     -2.510548      6.619703
  H       2.434586     -2.555408      7.731966
  H       0.696302     -1.030144      6.012225
  H       1.385860     -3.239563      5.152334
  H      -0.161201     -3.033188      7.310169
24
Coordinates from ORCA-job run E -1463.980556608418
  Al     -0.233301      1.229854      2.956267
  Al      0.707491     -0.098286      0.110971
  H       1.008536     -1.660343      0.711957
  H      -0.818769     -0.065357     -0.365253
  H       0.708628      0.730675      1.620817
  H      -1.670322      1.714219      2.448509
  H      -0.620194     -0.326410      3.578608
  H       2.057268      0.335582     -0.626432
  Al      0.778480     -3.171987      1.512394
  H      -0.056907     -2.582081      2.865410
  H      -0.325161     -3.948154      0.651870
  H       0.820088      1.926805      3.937314
  Al      0.422978     -1.540662      4.208192
  H      -1.012952     -2.270020      4.909155
  H       1.883993     -1.082145      3.703238
  H       2.257769     -3.563444      1.914387
  Al     -1.616539     -3.026570      6.339108
  H      -1.993477     -4.506323      5.980448
  H      -2.535661     -1.903099      7.011130
  Al      1.312620     -2.480391      6.569220
  H       2.460609     -2.506381      7.662321
  H       0.700365     -1.000393      6.006042
  H       1.337126     -3.191450      5.090099
  H      -0.156309     -3.018259      7.271059
24
Coordinates from ORCA-job run E -1463.982123859930
  Al     -0.228128      1.226973      2.993356
  Al      0.707043     -0.111860      0.145405
  H       1.002407     -1.672331      0.738798
  H      -0.807155     -0.094980     -0.360621
  H       0.710198      0.716252      1.658736
  H      -1.649454      1.749764      2.489670
  H      -0.621906     -0.327817      3.610931
  H       2.036996      0.341188     -0.611046
  Al      0.779438     -3.190208      1.524841
  H      -0.046782     -2.600025      2.871840
  H      -0.310101     -3.994369      0.677493
  H       0.813959      1.932177      3.976509
  Al      0.427756     -1.553076      4.205490
  H      -1.012617     -2.270529      4.888786
  H       1.874306     -1.070202      3.681680
  H       2.260262     -3.605744      1.930444
  Al     -1.633363     -3.016486      6.299707
  H      -1.999790     -4.503768      5.948874
  H      -2.545412     -1.907306      6.995923
  Al      1.314458     -2.449756      6.527476
  H       2.477907     -2.466263      7.606698
  H       0.715450     -0.974222      5.992632
  H       1.301423     -3.153079      5.037516
  H      -0.150535     -3.008955      7.235689
24
Coordinates from ORCA-job run E -1463.983005200003
  Al     -0.225746      1.227364      3.011143
  Al      0.696463     -0.121097      0.165404
  H       0.997262     -1.680163      0.754594
  H      -0.804489     -0.104321     -0.375771
  H       0.708279      0.705516      1.678397
  H      -1.629687      1.792458      2.504848
  H      -0.623753     -0.323666      3.628385
  H       2.016884      0.347930     -0.596817
  Al      0.781084     -3.198696      1.531569
  H      -0.042305     -2.608881      2.876143
  H      -0.292771     -4.024879      0.685677
  H       0.808289      1.934016      4.000986
  Al      0.432563     -1.558337      4.199969
  H      -1.018565     -2.269234      4.873280
  H       1.872532     -1.060035      3.673232
  H       2.258780     -3.645100      1.950027
  Al     -1.641958     -3.007111      6.277526
  H      -1.991844     -4.509881      5.931227
  H      -2.552273     -1.912087      6.996800
  Al      1.310530     -2.432156      6.512245
  H       2.484882     -2.448541      7.582144
  H       0.728406     -0.959693      5.974747
  H       1.291205     -3.139599      5.015998
  H      -0.147408     -3.008425      7.215075
24
Coordinates from ORCA-job run E -1463.983734824055
  Al     -0.223151      1.229711      3.021071
  Al      0.685105     -0.127833      0.180649
  H       0.995154     -1.687271      0.766321
  H      -0.807067     -0.110603     -0.386012
  H       0.705862      0.695374      1.690585
  H      -1.609030      1.833926      2.505006
  H      -0.626666     -0.315767      3.639690
  H       1.999022      0.358067     -0.583869
  Al      0.786017     -3.205002      1.534170
  H      -0.038518     -2.614490      2.877948
  H      -0.275253     -4.045656      0.684036
  H       0.806436      1.933895      4.019186
  Al      0.438431     -1.560536      4.190709
  H      -1.028716     -2.268291      4.865157
  H       1.872017     -1.045989      3.661395
  H       2.258361     -3.681675      1.966591
  Al     -1.651551     -2.999366      6.266103
  H      -1.984350     -4.520526      5.923258
  H      -2.559849     -1.919068      7.012478
  Al      1.302655     -2.419801      6.510270
  H       2.490456     -2.440125      7.566588
  H       0.735141     -0.948522      5.951193
  H       1.292824     -3.133248      5.008869
  H      -0.146972     -3.011822      7.195437
24
Coordinates from ORCA-job run E -1463.984302430407
  Al     -0.218699      1.232331      3.028268
  Al      0.678680     -0.132382      0.193399
  H       0.997375     -1.694411      0.775303
  H      -0.814452     -0.122593     -0.375797
  H       0.704756      0.685597      1.699151
  H      -1.590107      1.862422      2.497552
  H      -0.629999     -0.307327      3.648396
  H       1.985860      0.369936     -0.575077
  Al      0.794907     -3.212394      1.533248
  H      -0.033443     -2.619585      2.876968
  H      -0.261810     -4.056373      0.677343
  H       0.811415      1.931131      4.032481
  Al      0.445655     -1.561719      4.179037
  H      -1.037700     -2.267819      4.865938
  H       1.869110     -1.028379      3.639555
  H       2.261838     -3.709063      1.974496
  Al     -1.664963     -2.994303      6.261447
  H      -1.985688     -4.530209      5.920928
  H      -2.568636     -1.927529      7.036030
  Al      1.293202     -2.409748      6.514967
  H       2.497151     -2.436297      7.552067
  H       0.732985     -0.938731      5.930593
  H       1.298945     -3.121269      5.007696
  H      -0.150023     -3.015907      7.172839
24
Coordinates from ORCA-job run E -1463.984707153645
  Al     -0.212552      1.233851      3.034253
  Al      0.675093     -0.135086      0.202160
  H       1.002544     -1.700448      0.780246
  H      -0.827100     -0.139468     -0.347374
  H       0.704585      0.677047      1.704568
  H      -1.574434      1.875671      2.489128
  H      -0.632441     -0.301438      3.655274
  H       1.974894      0.380276     -0.572813
  Al      0.806265     -3.220266      1.529629
  H      -0.027863     -2.625090      2.873830
  H      -0.252920     -4.057848      0.668378
  H       0.822905      1.924339      4.040681
  Al      0.454067     -1.562871      4.167273
  H      -1.041087     -2.266585      4.871789
  H       1.864791     -1.011698      3.612552
  H       2.268087     -3.724211      1.974863
  Al     -1.679573     -2.990931      6.258691
  H      -1.993734     -4.534842      5.919407
  H      -2.577594     -1.934840      7.056115
  Al      1.283950     -2.401284      6.523917
  H       2.502331     -2.435850      7.541566
  H       0.724844     -0.931129      5.920790
  H       1.307971     -3.102511      5.010413
  H      -0.156669     -3.019406      7.151494
24
Coordinates from ORCA-job run E -1463.984946319413
  Al     -0.205997      1.233275      3.039576
  Al      0.669917     -0.136479      0.205431
  H       1.007714     -1.703602      0.780413
  H      -0.843063     -0.155302     -0.314798
  H       0.704403      0.671011      1.707091
  H      -1.563445      1.877815      2.486900
  H      -0.632678     -0.300526      3.660308
  H       1.962719      0.385635     -0.577488
  Al      0.816875     -3.226122      1.525305
  H      -0.023631     -2.630863      2.870459
  H      -0.247013     -4.053884      0.660350
  H       0.837589      1.913852      4.044573
  Al      0.462289     -1.564836      4.158965
  H      -1.037703     -2.264111      4.876186
  H       1.862431     -1.001834      3.592073
  H       2.274118     -3.727172      1.972462
  Al     -1.690408     -2.988053      6.253515
  H      -2.001623     -4.532756      5.915365
  H      -2.585166     -1.937503      7.061419
  Al      1.276854     -2.394522      6.533452
  H       2.502723     -2.436843      7.539612
  H       0.716573     -0.926488      5.921767
  H       1.317940     -3.083914      5.015651
  H      -0.165056     -3.021396      7.138242
24
Coordinates from ORCA-job run E -1463.985118400862
  Al     -0.198724      1.230692      3.045769
  Al      0.659497     -0.137705      0.205309
  H       1.011816     -1.704271      0.777579
  H      -0.862662     -0.168696     -0.285511
  H       0.703650      0.666187      1.708523
  H      -1.554044      1.877992      2.493241
  H      -0.630727     -0.303776      3.665004
  H       1.945006      0.386837     -0.587162
  Al      0.826630     -3.229660      1.521322
  H      -0.020860     -2.637479      2.867953
  H      -0.240226     -4.049289      0.653455
  H       0.854625      1.899685      4.047521
  Al      0.470671     -1.568362      4.153687
  H      -1.029722     -2.260529      4.875861
  H       1.863640     -0.998278      3.580525
  H       2.279272     -3.723754      1.971725
  Al     -1.697454     -2.984396      6.243470
  H      -2.005599     -4.526202      5.907800
  H      -2.592377     -1.935426      7.051559
  Al      1.270811     -2.387608      6.542402
  H       2.497917     -2.437063      7.545547
  H       0.711013     -0.923106      5.926734
  H       1.328493     -3.068630      5.022356
  H      -0.174286     -3.021784      7.132160
24
Coordinates from ORCA-job run E -1463.985278445021
  Al     -0.188831      1.225918      3.054812
  Al      0.640853     -0.139526      0.203794
  H       1.015435     -1.702946      0.772825
  H      -0.889126     -0.181745     -0.257956
  H       0.702414      0.660827      1.710313
  H      -1.542258      1.881782      2.510212
  H      -0.626373     -0.310516      3.670893
  H       1.916754      0.385422     -0.602043
  Al      0.837302     -3.231322      1.517413
  H      -0.018978     -2.646234      2.866253
  H      -0.229075     -4.046369      0.646211
  H       0.876835      1.879883      4.052180
  Al      0.480565     -1.574591      4.149667
  H      -1.018289     -2.256261      4.869872
  H       1.869101     -0.999550      3.575542
  H       2.285007     -3.716863      1.974447
  Al     -1.702660     -2.979356      6.226801
  H      -2.005308     -4.516911      5.896640
  H      -2.601336     -1.928989      7.026834
  Al      1.263724     -2.378106      6.551368
  H       2.487272     -2.434412      7.558487
  H       0.708382     -0.918776      5.930863
  H       1.340198     -3.056096      5.030720
  H      -0.185248     -3.019883      7.130683
24
Coordinates from ORCA-job run E -1463.985402989119
  Al     -0.177139      1.220256      3.065223
  Al      0.617820     -0.141603      0.202655
  H       1.018593     -1.700005      0.768105
  H      -0.917350     -0.192648     -0.237230
  H       0.701767      0.655480      1.712507
  H      -1.528254      1.891060      2.534276
  H      -0.620562     -0.318114      3.676628
  H       1.882546      0.383377     -0.618995
  Al      0.847330     -3.230528      1.514121
  H      -0.018107     -2.655366      2.865362
  H      -0.214018     -4.047091      0.639179
  H       0.900772      1.858782      4.058503
  Al      0.489763     -1.582697      4.146555
  H      -1.008358     -2.253737      4.860269
  H       1.877399     -1.004527      3.576061
  H       2.291868     -3.708865      1.980161
  Al     -1.706351     -2.974828      6.208603
  H      -2.001923     -4.509734      5.887071
  H      -2.611186     -1.920625      6.995419
  Al      1.255925     -2.367219      6.558119
  H       2.473217     -2.427779      7.573683
  H       0.709085     -0.913139      5.929197
  H       1.349160     -3.050097      5.038702
  H      -0.195638     -3.014973      7.132655
