68
Coordinates from ORCA-job run E -3488.522177879083
  Zr         -0.19757679913124      2.01677744206946      1.50788780175844
  Zr          0.18551708430958     -2.12653655024450     -1.48931846255107
  Zr          1.73769717577132     -1.19555688182778      1.48779845421468
  Zr         -1.74043421702234      1.08420179439126     -1.47505019032714
  Zr          1.73516740101782      0.99141058986643     -1.54431102218562
  Zr         -1.74464505668571     -1.10647509362988      1.56056479194529
  O          -1.76373656572542      0.72435090497860      0.58434265174423
  O           1.75277089619872     -0.83958577203694     -0.57377225128715
  O          -0.12891427003448     -1.97451950327864      0.55534185001095
  O           0.12520738253206      1.87059547730233     -0.53627777850569
  O          -0.13527458704050     -0.12052287104541     -1.99293090615393
  O           0.12957330177455      0.01370203410569      2.00366819487254
  O          -1.50434450533642      2.02890866232160      3.31147965862235
  O          -1.72964055905553      3.58490562242911      1.05303960965118
  O           1.50610231497236      2.01163098462521      2.97697033283275
  O           1.22820155167240      3.73604842751263      1.05685686741576
  O          -1.19350738156040     -3.86590591406861     -0.99214188268712
  O          -1.53417244080406     -2.13440054768782     -2.92826151962061
  O           1.67843639622688     -3.72672825513933     -1.03244170211630
  O           1.49439321259203     -2.15094907774410     -3.28810674825984
  O           1.10606442585679     -2.56371922585944      3.13813227009678
  O           2.45108514309818     -0.03113848272249      3.30178507008886
  O           2.64592945319735     -3.14896365326533      0.93408170206987
  O           3.74119466538617     -0.29417560306688      1.04133319430918
  O          -3.73745475388013      0.15795731056978     -1.04154567472657
  O          -2.71567371549932      3.00760541532224     -0.90651028772966
  O          -2.45172624725284     -0.08523485378776     -3.29050098608978
  O          -1.10427355444178      2.43395940030605     -3.13788537011414
  O           1.15963683689252      2.35124503759385     -3.21511268686010
  O           2.59283486004838      2.79077456688983     -0.50142588173668
  O           2.43391279285933     -0.08978923530203     -3.36951159813378
  O           3.92828528786448      0.61243666218877     -1.03633153314650
  O          -3.92909215908751     -0.76471001097956      1.02714833938766
  O          -2.45611974609698     -0.02667496398580      3.38018308066358
  O          -2.56575455829275     -2.94601224106966      0.57040501671368
  O          -1.15582006454066     -2.45483699159339      3.22900708673802
  C          -2.23538767528203      1.13356566907412      3.83840445718668
  C          -2.58497825187733      3.72994223283126      0.13011079062948
  C           2.14621372569060      1.14383707189111      3.65645570815115
  C           2.18376693462809      3.75137889851477      0.22893206484491
  C          -2.10526419386251     -3.91601713213637     -0.11805898075606
  C          -2.16394781705956     -1.26958425490695     -3.62380614524345
  C           2.49485733184566     -3.89974720413898     -0.08002082510591
  C           2.21807229164692     -1.25270667250478     -3.82181929100221
  C          -0.02354786693229     -2.88948700274079      3.60863412219116
  C           4.38973901740067      0.05210694692930     -0.00244161795234
  C          -4.39060641871865     -0.20529405853191     -0.00794481376897
  C           0.02482414137181      2.77833546943407     -3.59717830391228
  H          -2.51504403645855     -1.60835068984787     -4.64236931005119
  H           3.15503712635829     -4.81269506367451     -0.13445301219161
  H           2.49203351945197      1.46781171244568      4.68171936001886
  H          -3.30882485059019      4.58886216420598      0.23901812065653
  H           2.71868211382493     -1.52074501994297     -4.79636150574837
  H           0.02476033249956      3.53446762238363     -4.43439795702574
  H           2.75934783040063      4.72005802535660      0.14023224467729
  H           5.50037886284788     -0.15311011134877      0.00979671815533
  H          -2.57624785336966     -4.92622156672644      0.06423034665207
  H          -5.50438732137027     -0.01927867985293     -0.02920326481624
  H          -2.73895039378198      1.40030998907173      4.81176152114678
  H          -0.02732685541618     -3.64007578104375      4.45054880314201
  Al         -0.34304105873921      7.32324737838462      1.02869014487404
  Al         -0.24799923945637      6.26532441778864     -1.40213376360531
  H          -1.47841595595619      6.79787987755188     -0.24465504267466
  H          -0.21492026471587      7.23167915705411     -2.69188593128072
  H           0.88545792381740      6.84159884095297     -0.17063697797541
  H          -0.38796050582475      6.32234964254078      2.28414980099542
  H          -0.36824231751277      8.93502139352333      1.09388051740354
  H          -0.22995095117581      4.65867815224699     -1.41414444121827
