72
Coordinates from ORCA-job run E -3732.510780384218
  Zr         -0.25675761871272      2.09947072200397      1.58169744606667
  Zr          0.19850785579761     -1.99516845779051     -1.44507993576428
  Zr          1.64695199190425     -1.11577581144556      1.58087089822785
  Zr         -1.75253619803492      1.22701189192439     -1.43588035143827
  Zr          1.72219945363496      1.12315952759591     -1.45422832623547
  Zr         -1.83151686803326     -1.00848936782054      1.56149339015309
  O          -1.81776799768342      0.83614803354892      0.60476155427846
  O           1.74652080394604     -0.71598731210188     -0.47279195805246
  O          -0.19310924073992     -1.85636400937863      0.58242011331526
  O           0.10594061169158      1.96588597715392     -0.46294857242229
  O          -0.14129068518379     -0.00213423501910     -1.94485671254013
  O           0.03733630742843      0.09766292989440      2.07427423224991
  O          -1.66698805423016      2.12417333538520      3.31025848064181
  O          -1.66213714398923      3.76324567943595      1.10168423500490
  O           1.31610180828416      2.10172761812156      3.18690188286394
  O           1.26422271148245      3.70828794581327      1.13767705903393
  O          -1.24971008238232     -3.68980658785098     -0.99899318367876
  O          -1.40190696387561     -2.05750615947553     -3.02274907125300
  O           1.65200681047301     -3.62929875723154     -0.96021329848038
  O           1.58861751715776     -2.00478512171217     -3.18987491890965
  O           0.98307431496052     -2.49620270042841      3.20588188333407
  O           2.30510812893611      0.06126839493100      3.41158227760530
  O           2.56410481981213     -3.06715978372543      1.03921065240394
  O           3.71230018419210     -0.29424826703076      1.26459488957661
  O          -3.88513667768209      0.60146726275357     -1.02284673751675
  O          -2.56941152951400      3.23340856482968     -0.91140412131998
  O          -2.50448320194492     -0.07036108668695     -3.12100820880901
  O          -1.12417710830332      2.52721009289323     -3.12995483408983
  O           1.13809850813482      2.35844149653697     -3.22005217780420
  O           2.44052464753077      3.14389642109194     -0.73237872265143
  O           2.59695545682857      0.02808739884722     -3.18973926959330
  O           3.81688604092787      0.94572182107388     -0.63750457357900
  O          -3.94484814853836     -0.72546924543456      0.82768879510873
  O          -2.65398599604139      0.07757860974622      3.32510312113689
  O          -2.58219570462896     -2.94318403041713      0.69335493149114
  O          -1.27909466200619     -2.30819231624088      3.28078878193173
  C          -2.45103678465255      1.24394882527870      3.78083243154403
  C          -2.41384033807941      3.97960862928523      0.10273267150563
  C           1.97803238277110      1.21509166871604      3.81733475222615
  C           2.04565547681754      3.94934057243189      0.16626278660139
  C          -2.12851181443919     -3.83135005831093     -0.09810069398963
  C          -2.14369218653398     -1.19279975970211     -3.58573125333841
  C           2.43258149987515     -3.81404292247777      0.01973707471418
  C           2.38946610113434     -1.13630910788384     -3.65028952373414
  C          -0.16197723478547     -2.76067885937827      3.68087982403816
  C           4.32708976001800      0.29958494223870      0.32523213656888
  C          -4.47019367115210      0.00707453993397     -0.06524002733467
  C           0.01430177382078      2.77597564435590     -3.63303803504823
  H          -2.54354349869083     -1.46504446256711     -4.60601100738295
  H           3.07879387058429     -4.73807460809434     -0.01424357397158
  H           2.32847042425552      1.49984923914437      4.85261210980504
  H          -3.00732510991724      4.93881246718808      0.11754789304347
  H           2.97922535171101     -1.42938866998201     -4.56620300738874
  H           0.02658740095152      3.43966304541017     -4.54514155007318
  H           2.45236681106235      5.00121486448469      0.10382102325454
  H           5.45501154399243      0.26739835858511      0.36482972604714
  H          -2.57761021899008     -4.86252788746134      0.00557665884004
  H          -5.59174271468967      0.12947855273556     -0.01367936972813
  H          -3.03142980459468      1.53041354647353      4.70484094941541
  H          -0.19309476742281     -3.47527656441957      4.55324097995386
  Al          7.07742402861053     -2.79964468840986     -0.24531043709784
  Al          5.68299021627662     -3.80241537641336     -2.94619010906411
  H           5.87012544828101     -2.10365753975102     -3.32364081406450
  H           6.94933378757659     -4.59355513585673     -3.54728201184918
  H           5.90501227062338     -3.66400703543092     -1.21466544341234
  H           8.52677899373656     -3.44365998385011     -0.51931528846953
  H           6.95312122941508     -1.28736184324278     -1.11149362907917
  H           4.11442221188422     -4.10184917527215     -3.14549948780075
  Al          7.06854835122962     -0.93142110084015     -2.82079640098564
  H           6.36889956957185      0.50713318781279     -2.98581548768814
  H           8.50515811926143     -1.43115569207771     -3.34836876512274
  H           6.34961943160171     -2.51720169564427      1.16200433955810
