76
Coordinates from ORCA-job run E -3976.498618611573
  Zr         -0.25948693448813      2.01841308234548      1.56862909883505
  Zr          0.27499801087913     -2.00713414367717     -1.57493535590347
  Zr          1.73565408975622     -1.14199526798877      1.43244661226211
  Zr         -1.71356781877805      1.17584726545905     -1.46381097581013
  Zr          1.78108726615901      1.13505819380309     -1.47674147343763
  Zr         -1.75555904936437     -1.12137940606608      1.46514161906051
  O          -1.77781620734512      0.73621241374295      0.55620203810955
  O           1.80552142801043     -0.72696171536757     -0.58804608503215
  O          -0.12098853779934     -1.89653583308229      0.45087609077294
  O           0.16097199261263      1.92122732423003     -0.45566684800938
  O          -0.11045172521200     -0.01113084799661     -2.00393246352402
  O           0.12535098844583      0.03145914992491      1.99677746752374
  O          -1.68480003041981      1.97373129913406      3.28128968877441
  O          -1.67838949869915      3.68349512706627      1.11972535367876
  O           1.25781874775048      2.06519908901895      3.24107804312803
  O           1.22658624299841      3.69885347920283      1.19527349610932
  O          -1.13723848237676     -3.74593178320835     -1.15554655964656
  O          -1.33220847331313     -2.05692840765722     -3.13704552254740
  O           1.71933720816990     -3.65737285906046     -1.12319864166014
  O           1.66978510599310     -1.95492509322165     -3.30335680010585
  O           1.14223042415088     -2.46521278534683      3.12646531760776
  O           2.53039817895857      0.19018525847583      3.04092976009964
  O           2.57507083087601     -3.13371146696715      0.91035905999029
  O           3.89999511013601     -0.60212743807787      0.99666045853959
  O          -3.85178796728952      0.55339100309697     -1.04044244236833
  O          -2.53912344356424      3.17251267926568     -0.91716197706041
  O          -2.48444933114990     -0.09382468141584     -3.14676015915586
  O          -1.08476998818932      2.52886174683407     -3.12692805757229
  O           1.18545425765978      2.47593243227806     -3.14537331016782
  O           2.55747162541457      2.98601728529244     -0.51200253735970
  O           2.58489017224055      0.12448563509276     -3.30799327280963
  O           3.91838126746746      0.79808079036808     -0.80884472717437
  O          -3.88417115198750     -0.80205902332798      0.79840303101123
  O          -2.55975101135228     -0.12220947682770      3.29397953079182
  O          -2.50092618978235     -2.98637374613723      0.50590219575618
  O          -1.12709686480559     -2.45471669532838      3.13361200676951
  C          -2.41296167238262      1.04942845513321      3.75777431621032
  C          -2.41195665329902      3.90802348377889      0.10874219448513
  C           2.09637198641551      1.21384220112862      3.66037817685819
  C           2.11155888388006      3.85731436526272      0.30422525735028
  C          -2.03485346873398     -3.88139033367475     -0.27510361106715
  C          -2.11069329388438     -1.19435444283139     -3.65349181679316
  C           2.45767558941921     -3.87293599755335     -0.11490572598787
  C           2.42108530571183     -1.04364837460831     -3.77222850468052
  C           0.00723383124925     -2.81457166332704      3.57419327042335
  C           4.45959634360704      0.03631571729278      0.04960929430137
  C          -4.41880798109330     -0.05894265812899     -0.08217674236018
  C           0.05367791914247      2.85744266047722     -3.57766551766168
  H          -2.53324921309238     -1.44815851990770     -4.66900576325316
  H           3.07254750032661     -4.81791001768636     -0.13007391721756
  H           2.52272618162390      1.39276089155114      4.68978570666354
  H          -3.01346649980452      4.86190381666485      0.12331889436901
  H           3.00309789971790     -1.30312530804373     -4.70291269352779
  H           0.06401418204430      3.56484737336778     -4.45616837793299
  H           2.57609576408910      4.88399219812569      0.23395424229675
  H           5.58047723468681     -0.07929022297076     -0.02972659820761
  H          -2.49319576837220     -4.90867593613094     -0.17691316017676
  H          -5.54015344979831      0.05866345039386     -0.01404289637548
  H          -2.99163640388939      1.29678009649926      4.69373623377060
  H           0.00537092560197     -3.51877577025703      4.45471989015731
  Al          3.70759206758345     -1.84602453914027      5.94507675275469
  Al          6.06594607398523     -0.34750450755511      3.92525658265878
  H           6.17844584847882     -1.69463270705282      2.84593471003307
  H           5.53854254571366      0.96347979630196      3.15934147525484
  H           4.82934199625525     -0.98033193612428      4.95978407851216
  H           2.25598085834416     -1.15380134025762      5.87178447405427
  H           3.68892230514135     -3.31210984002130      5.03099773365340
  H           7.41490941727441     -0.41382481670447      4.80866455810269
  Al          6.23485304998711     -3.20826150947012      2.01544006271633
  H           4.97476807788782     -4.00727165239175      2.89005820661441
  H           5.78560983312831     -3.04863100378500      0.47808275094944
  H           4.49328055395556     -2.18076930273682      7.31298513227058
  Al          3.95098609152376     -4.73341541395357      4.07840639633005
  H           2.57470540590100     -5.20716524123390      3.39509657301234
  H           4.90440907004420     -5.66983525867305      4.98233014665603
  H           7.61255736874090     -3.89144826696681      2.50395507667726
