88
Coordinates from ORCA-job run E -4708.483982666500
  Zr         -0.99759187088491      2.34219237519706      1.32103749075592
  Zr          0.52496321985850     -1.88741512893798     -1.12531617543604
  Zr          1.39763250626260     -0.48579824039194      1.92551989870387
  Zr         -1.83873098871623      0.94137280102296     -1.73616617601033
  Zr          1.57311116335683      1.42546835418270     -1.25695396576619
  Zr         -2.00451630724829     -0.97273962720232      1.49498072590881
  O          -2.16008362038166      0.72409311436866      0.30855241939427
  O           1.71737950993039     -0.30102091927050     -0.11005924915559
  O          -0.15195936922708     -1.61515261816995      0.82479646727159
  O          -0.28262982535187      2.07244807532158     -0.60481337185599
  O          -0.01934273839834     -0.04008605556528     -1.86446271168905
  O          -0.43220361657590      0.49548712475481      2.08910900037322
  O          -2.67180794641120      2.29012349701980      2.79577876195828
  O          -2.52826019597109      3.70882686485734      0.43627446392497
  O           0.16602540684030      2.82350029801438      3.19832055921416
  O           0.37016375381653      4.08828272971616      0.94448832652762
  O          -0.80191146117285     -3.64339526601963     -0.69361404191549
  O          -0.68365887973035     -2.34516643589905     -2.96867836477392
  O           2.10825728275513     -3.22415799629213     -0.29164132971494
  O           2.17835110242253     -1.82442575962274     -2.63021869038664
  O           0.74426593815602     -1.61593030566837      3.70676262598572
  O           1.77012816700722      1.21141321682326      3.33018311029765
  O           2.54456368624751     -2.43824308658795      1.79586514778908
  O           3.55289038049922      0.25425959314749      1.72982290889748
  O          -3.87414045996860     -0.01802802898534     -1.56058065384721
  O          -3.02504828133185      2.81308337308670     -1.58625428137505
  O          -2.10068873893824     -0.60349077853950     -3.35865617990803
  O          -1.15237437277436      2.16739857332977     -3.47232797730834
  O           1.09097348944033      2.39163191705713     -3.20760948916434
  O           1.87574382721415      3.59079782367916     -0.69212355264453
  O           2.84683224903576      0.34061279039275     -2.72508544670240
  O           3.48672913713886      1.61838749718178     -0.09412282683923
  O          -3.92506359996312     -1.22718935339834      0.36502369940782
  O          -3.29809353191624      0.11643071267184      2.94549084888058
  O          -2.27556002975068     -3.16076526380189      0.97952973366530
  O          -1.49464585124094     -1.88176528977259      3.47696626512114
  C          -3.38009162006811      1.34517990833077      3.25719056710840
  C          -3.14061504370188      3.68868873938990     -0.67445071016406
  C           1.11021719139861      2.21014078229338      3.77468286415136
  C           1.23628545984120      4.38501268637104      0.06228265531568
  C          -1.63954887374115     -3.94761721408801      0.21685047818280
  C          -1.48792312945561     -1.66712034684841     -3.68213790308426
  C           2.72505699290813     -3.22732638490049      0.81032776878690
  C           2.89903871219219     -0.88016380667896     -3.07296371858110
  C          -0.40449943211887     -1.99590109207770      4.10754723616020
  C           4.08167398599692      0.97924564790150      0.83056519902793
  C          -4.46149598039857     -0.65500415947664     -0.63551963834247
  C          -0.00116842120164      2.56301058155579     -3.83107600220603
  H          -1.69280755543434     -2.06612412627137     -4.71779285050604
  H           3.51864887903759     -4.01813512868095      0.94317177065863
  H           1.41672936637143      2.60216144528673      4.78477721370068
  H          -3.85850242291279      4.53386755266218     -0.87580078572186
  H           3.66494709759298     -1.15042942036566     -3.85480645902565
  H           0.05783530407627      3.12752180240437     -4.80535536200732
  H           1.47672830411648      5.48208923715415     -0.04914697708005
  H           5.20432922624177      1.08136318997551      0.86980909853764
  H          -1.84485129485760     -5.05086360253473      0.34332858486757
  H          -5.58180912515506     -0.74954344307474     -0.72244182759632
  H          -4.15970727048487      1.62094357965582      4.02287276210920
  H          -0.44038819133809     -2.47938531907738      5.12549942332665
  Al          5.06633746920512      1.60870690715230      5.86369440909550
  Al          2.26543711509903      0.00836421180999      7.06570207223491
  Al          5.69883774560454     -0.91348531335063      3.79921998173312
  Al          3.89241235034083     -2.35268993439387      5.95783424680960
  Al          5.90981107270458     -3.61289107239570      3.94186632523762
  Al          2.79418396610885     -4.59666941942803      3.96941985610800
  Al          2.28868174353938     -4.91781135585976      6.90600960766747
  H           5.87012182942019      1.92388719245711      7.22959224575433
  H           4.57136585955206      2.69598072475116      4.77445345100849
  H           2.61950259096668     -0.28437118997817      8.61219972352193
  H           0.92999542472200      0.74901197049150      6.53533158284749
  H           3.61792559725624      0.77856521935255      6.31960045173635
  H           5.90168889895745      0.35606436889695      5.03637493638789
  H           6.29831153717162     -0.20493601677920      2.48743489015210
  H           6.72260622461758     -2.05017177348186      4.60273533764391
  H           4.34347142419445     -4.80716476525049      3.38627873595969
  H           5.03202355389137     -3.63874488804731      5.39833109887608
  H           5.34432106513972     -2.62695780835489      2.72735108537666
  H           7.08753808351310     -4.69415366245626      3.82368132013239
  H           2.97086122350449     -5.55566894854425      5.41558005762822
  H           2.57711667587273     -6.03592064508460      8.02976262515845
  H           0.83987113967474     -4.31883830105914      6.48702285483732
  H           3.37099077048067     -3.61369303706756      7.12929409569788
  H           2.38511970412285     -1.48146894894832      6.21195060935204
  H           4.16576114473470     -1.30778074339611      4.43011295642107
  H           4.94617516592686     -1.57251213194651      6.91982933388159
  H           2.71669533181151     -3.11272541225689      4.73446253616383
  H           1.53176821501110     -5.13408067386654      3.11843327738249
