88
Coordinates from ORCA-job run E -4707.359384917666
  Zr          0.25171646795975      1.87930627918049      0.77125817978302
  Zr         -0.57390627656781     -2.48522050947750     -1.56655633493878
  Zr          1.73052969496894     -1.53026947588029      0.72738814019519
  Zr         -2.05199073563956      0.89590414028480     -1.51623765285864
  Zr          1.16178776185858      0.29971059659542     -2.38042667383588
  Zr         -1.44724371295333     -0.89606372264551      1.67747622188697
  O          -1.54440084089023      0.74399544278438      0.46075244288862
  O           1.32458085156071     -1.35789043814871     -1.25168470240443
  O          -0.32794641942375     -2.05763669639083      0.41863112450669
  O           0.06985161111840      1.51759932403014     -1.21356582717304
  O          -0.78132716738379     -0.55107522178035     -2.20133971015072
  O           0.55028336227707     -0.02583020246723      1.47580337959155
  O          -0.46765419644586      2.29466446031644      2.77681533355803
  O          -1.06956851457245      3.59124448411500      0.49292370647208
  O           2.26107398842243      1.93351075560030      1.61504353438208
  O           1.57093720557113      3.41080039298269     -0.36217771425282
  O          -2.08188076897907     -3.69743897913132     -0.52723886810227
  O          -2.41602107867279     -2.46631156450450     -2.75082097437794
  O           0.64551833316370     -4.23866132576730     -1.20049741732917
  O           0.31650886457585     -2.88013072915262     -3.50704797049960
  O           1.56022381236890     -2.37545855292900      2.72182569193210
  O           3.15090618108297     -0.10900326087552      1.57409670382071
  O           2.06777226402984     -3.65974808274255      0.40878525720575
  O           3.73859994386203     -1.61675189616336     -0.41189524931258
  O          -3.93649262507932      0.52161955335041     -0.47206084842789
  O          -2.51432973342154      2.96764721681139     -1.08006502126924
  O          -3.29664751054925     -0.41006060343797     -2.76950331394682
  O          -1.76363015685533      1.87959125997709     -3.43261110530251
  O           0.33587745217629      1.43382958150894     -4.01090495851230
  O           2.48733259020190      2.21516025944694     -2.02201005345991
  O           1.44827756687546     -1.04206401299860     -4.03432770831173
  O           3.48346287914303     -0.02828795360062     -1.96744783558732
  O          -3.59554818088324     -0.40140254117581      1.53639856772262
  O          -1.60374636621608      0.47624803596638      3.36776145248886
  O          -2.58902400696821     -2.76063779170388      1.43974528948403
  O          -0.55014052943924     -2.01170730108548      3.32156678454047
  C          -1.14418016385761      1.61708462301610      3.58282563947764
  C          -2.03730699578880      3.79367798253720     -0.27022811257769
  C           3.09301189049101      1.07343379850997      1.97806210189202
  C           2.27504015137469      3.30693502288850     -1.35567589940411
  C          -2.57112326481215     -3.70873653858969      0.62424867730796
  C          -3.18368778146457     -1.58120200892471     -3.19243949380982
  C           1.56565484628603     -4.48016581592003     -0.38824224579232
  C           1.05760405311393     -2.21233457748814     -4.25966688490167
  C           0.60360289393913     -2.44517130273572      3.52515886724021
  C           4.13565190111095     -0.97613401120211     -1.37461208382800
  C          -4.27840784705116      0.21889698001767      0.69570921379269
  C          -0.78844819887752      1.95151317678367     -4.21024384681289
  H          -3.83921803957552     -1.87006666129061     -4.02278175624641
  H           1.96441114827732     -5.50049076822606     -0.37465633342527
  H           3.85425455695694      1.39079671639384      2.69955783475502
  H          -2.51171487080202      4.78033586755451     -0.22715354335603
  H           1.39484505387637     -2.68036691074998     -5.18896035057566
  H          -0.91994031051409      2.50482516274700     -5.14571376829551
  H           2.79227022720401      4.19644533839540     -1.73099945810503
  H           5.12931703818473     -1.19662564188924     -1.77958483946350
  H          -3.05451887813232     -4.64047024726720      0.94312477513603
  H          -5.29099555997522      0.51099392038963      1.00036599184086
  H          -1.35194218256711      2.06596243820545      4.56060510444980
  H           0.79449837074282     -2.93008798365845      4.48902246336423
  Al          1.84457624801003     -0.82694359042732     -8.33410900537055
  Al          1.74485478051499      2.23321753439785     -7.38278615446236
  Al          4.34612715493993     -1.49997295132213     -6.50744878862541
  Al          4.22678156350495      1.50362006849255     -5.82103185677203
  Al          6.48863447145424      0.12598151949499     -4.22828952184930
  Al          4.35424151215221      1.68389262270574     -2.46193965572953
  Al          4.49949574545488      4.26691715886022     -4.34217219048624
  H           1.63249940262270     -1.16878031702911     -9.85865213915945
  H           0.84896515114613     -1.25138988601140     -7.18181110543313
  H           2.44643283960496      3.41811831489744     -8.15181509815930
  H           0.18079251271590      2.20408907801690     -7.12386096675428
  H           2.09932292747990      0.82516567510000     -8.24914769388430
  H           3.38543445863212     -1.31110788459926     -7.92717342810593
  H           3.79093131657088     -2.81916834330503     -5.83332752002157
  H           5.80358106137318     -1.28118675644659     -7.07235613365649
  H           5.88819011788294      0.94269294816686     -2.91463650494905
  H           5.88401862050569      1.14002195043154     -5.37311589938470
  H           5.66450965625141     -1.24477992072412     -4.28122153604541
  H           8.06596551376337      0.14753925755660     -4.20518368248618
  H           4.88242425439058      3.24925271434780     -3.08127852733241
  H           5.63853348049906      5.35309498599200     -4.48515362137659
  H           2.96868110037980      4.65488838916210     -4.16413901217527
  H           4.62047938575453      3.17492825985029     -5.57190295974220
  H           2.51645102601282      1.87627421198337     -5.96199028864405
  H           3.73180504660388     -0.17728450504980     -5.74738849755494
  H           4.56157651495612      1.53881797034273     -7.37808075460438
  H           3.82648800464454      1.39562460607997     -4.10406583158281
  H           4.96086543292637      2.02839905484697     -1.02279395216543
