20
Coordinates from ORCA-job run E -1219.485679060576
  Al         -0.54631655998289      0.94514498128924      2.94070640534126
  Al          0.14770015989075     -0.42778217166512      0.31792653882368
  H          -0.40282877691905     -2.03685782475253      0.31537626786698
  H          -0.30563299355574      0.19658424909585     -1.04844021371219
  H          -0.91724719464517      0.04363767881185      1.53233165676511
  H          -1.91041435099529      0.98557971147955      3.72387814700657
  H           0.43951270105984     -0.18546014542731      3.65660793796767
  H           1.58820929836248     -0.46535871424387      0.96244749821089
  Al          0.03969374626543     -3.30923700701073      1.34176842053284
  H           0.16137164233027     -2.28438295947682      2.68815112619159
  H          -1.25807534066487     -4.16103794635613      1.57573518057011
  H           0.32584153858514      2.16465832412220      2.45741071551207
  Al          1.22003700331717     -1.73171521147711      3.85705378227190
  H           0.47058434767473     -1.75442938013547      5.38616302451509
  H           2.71747931285113     -1.36161888060109      3.61490349213086
  H           1.48757007441493     -3.79206788392448      0.97071414355323
  Al          0.67438983561633     -3.44439550220978      5.78282361791672
  H           1.72296530953819     -3.49833903759238      6.95159894838801
  H           1.42912588953806     -3.50963178243256      4.28534467426912
  H          -0.75775564268151     -4.08831049749299      5.69748863587790
