92
Coordinates from ORCA-job run E -4951.232018844699
  Zr         -0.89889453165200      2.12903098513614      1.24783010035832
  Zr          0.43535518084998     -1.85831647259261     -1.36880172734398
  Zr          1.91269377443762     -0.19878864977845      1.21602910486570
  Zr         -2.45528591424193      0.46927907151368     -1.25181990304269
  Zr          0.73288678610142      1.46179504877643     -1.87542175681964
  Zr         -1.26545120294201     -1.21236282856229      1.80425541870174
  O          -2.02138304743506      0.37445619503132      0.75194803446960
  O           1.54879675558125     -0.06986661190051     -0.79606159327055
  O           0.34362243391218     -1.59839205051199      0.66711730895627
  O          -0.95616409239378      1.96963298496752     -0.77627885605847
  O          -0.62538578712347     -0.20362232731752     -1.88257379621424
  O           0.13860721234521      0.53396856832270      1.89813292955681
  O          -2.07834555780485      1.97024689506499      3.37812398394805
  O          -2.78266934710037      3.14398328752078      0.89278457764506
  O           0.97897409337519      2.72038550266507      3.10578627223482
  O           0.84963644070727      3.19302927137775      0.45835692606681
  O          -0.57587307389422     -3.63563627236131     -0.59761124146237
  O          -1.04176669176931     -2.56387146253332     -2.87277337546876
  O           2.28044138091716     -2.94287302882964     -0.94177145811659
  O           1.57815488724640     -1.65767333476418     -3.21173831309992
  O           1.98684209098664     -1.49021390472848      2.98972370992461
  O           2.54765655179491      1.15951398762375      2.89894999165840
  O           3.30016030786006     -1.78182661835659      0.66153032854842
  O           3.42912073434258      1.16836269130778      0.47941656309146
  O          -4.20683502057864     -0.55355224795857     -0.34745862435010
  O          -3.77206460811505      2.14037652826292     -0.83266961081229
  O          -2.86374440953642     -1.36258989232646     -2.37880374555657
  O          -2.55507076949886      1.45575106010717     -3.17880959257542
  O          -0.46594233212826      2.11738956541207     -3.58435321784015
  O           0.86163503360417      3.70878255594660     -1.68902120105865
  O           1.67174494383746      0.53256393880469     -3.59668631399667
  O           2.84130082114286      2.06065909593489     -1.48620323306222
  O          -3.27844605685105     -1.82208707189459      1.24184177509533
  O          -2.26300121222423     -0.25029893254960      3.48122306024743
  O          -1.30420866301988     -3.41513310211194      1.50504314292206
  O          -0.13891010076648     -1.87103007094744      3.53123966316434
  C          -2.48089252167611      0.88735219884027      3.90834692958616
  C          -3.68413667014932      3.03851113468961      0.02721249305957
  C           2.06971529289255      2.16105370917860      3.43610978844833
  C           0.87556016795697      4.03298627764932     -0.49917414697444
  C          -0.92142654644452     -4.07950560570597      0.52557353531513
  C          -2.20411756194478     -2.17151456385005     -3.07883091272271
  C           3.22783722444270     -2.72038508234274     -0.15907583672054
  C           1.91816908708006     -0.65873820858138     -3.87826515033535
  C           1.09487121419560     -1.95448056437199      3.72434224137801
  C           3.66816327172634      1.73277623096215     -0.61510457321426
  C          -4.25516607112202     -1.32774147350729      0.62306145333255
  C          -1.67619087029008      2.02509093121416     -3.86527986988945
  H          -2.71833567185821     -2.58877718580688     -3.95493006012356
  H           4.07649764112258     -3.41460470381153     -0.19539609421604
  H           2.62474401011230      2.61916417112820      4.26575527101838
  H          -4.46527789148815      3.80640325044322      0.03937664582004
  H           2.48560784687404     -0.84374634405824     -4.79843271999904
  H          -2.00505213891812      2.48238086804972     -4.80656297726050
  H           0.91395876754265      5.09832911106908     -0.23862978510734
  H           4.71875762170710      1.98380663702501     -0.81210247745336
  H          -0.89993601782955     -5.17080901255109      0.64519990266249
  H          -5.25238207512001     -1.62909240177981      0.96963925372865
  H          -3.06897644849795      0.98471130668225      4.82697175342035
  H           1.41759034810368     -2.48621093240131      4.62790954452635
  Al         -4.18067759500298      5.77166303072720      2.79876408781892
  Al         -4.16758659015150      8.84111734878548      2.83966061005793
  Al         -3.29099637004032      6.82826634717241      5.09510141306313
  Al         -2.50738203818697      3.71740096293920      4.55953990632328
  Al         -0.19232705266447      7.42548630669994      4.44360318958496
  Al         -1.08444698282205      8.37566621635772      1.53742604311939
  Al          0.31375670801795      4.43914526699529      3.51624464446557
  Al          1.77388265021072      6.85258432317837      2.12960912996495
  H           3.24854327654874      6.96171902607733      1.58362134804850
  H           1.48029587769774      7.42720083507768      3.61516850620996
  H           1.23943234372150      5.30848773241581      2.18780536362998
  H           0.64353884796699      7.62866774500628      1.24385369983370
  H          -1.74547770081130      7.06244373103415      0.95635187822887
  H          -0.68628612287615      9.72979206151336      0.84234154581415
  H          -2.69816683729115      9.05985308141908      2.17681329963571
  H          -5.13612331827217     10.07131158073996      2.67264847139118
  H          -0.67067025331994      8.46644271686821      3.19335891049068
  H          -3.88402767909851      8.40105827851683      4.38728156195598
  H          -1.76905753419153      7.54920719378612      5.09514014454201
  H          -3.92492053538074      7.15242238976815      6.50224648452085
  H          -2.64309637663301      5.27598699527330      5.29429211485351
  H          -0.88394222403858      3.86744296672157      4.71326260351931
  H          -3.24037378908787      2.87678041993655      5.68176829116308
  H           1.35582897907844      4.85850894749226      4.65718916888692
  H           0.57580489083976      7.89409613730148      5.72952357523810
  H          -0.54787691028172      6.02116750206939      3.68973946428347
  H          -4.95860616134132      5.14827219913903      1.58584065832064
  H          -4.74696012593683      7.43490388553295      2.23005846416007
  H          -3.44589377155862      4.23558824083252      3.31664182151518
  H          -4.80111604089690      6.03394436140137      4.31230413368887
  H          -0.83759929622601      4.11891080649559      2.32140951416204
  H          -2.79430609230155      6.52282341020336      3.25346826723092
