92
Coordinates from ORCA-job run_pre E -4952.495901841196
  Zr         -0.80315591020989      2.17617700304789      1.26873989918605
  Zr          0.45908454764056     -1.99407614705958     -1.42282894604477
  Zr          1.98183270192870     -0.30270572559249      1.21128209595403
  Zr         -2.42895165605150      0.46396743393141     -1.29729594938453
  Zr          0.84063123939144      1.38708736561638     -1.97106743704796
  Zr         -1.29395890451705     -1.26037288171924      1.79787442663299
  O          -2.01422220040976      0.38418536457405      0.74348824682438
  O           1.63711984416865     -0.18409739092370     -0.84979632425183
  O           0.35071650344468     -1.68701573602961      0.64213438588101
  O          -0.82593429559074      1.92795770808966     -0.80364829881419
  O          -0.58394147795077     -0.27940754536171     -1.95283027603660
  O           0.19085341464736      0.48556205856188      1.89100583876995
  O          -2.06396146867093      1.96492626410296      3.41881198167348
  O          -2.70570495906180      3.22575248057083      0.85068571713639
  O           1.05267637354136      2.73489250956296      3.06006524342029
  O           0.84076117571787      3.44021822047712      0.45252561821244
  O          -0.53310952309708     -3.82195026241207     -0.62138573789776
  O          -1.10585399362049     -2.69514052745768     -2.90560741104460
  O           2.34742933908998     -3.09735438989535     -0.99590293148383
  O           1.60310448144854     -1.82889455101569     -3.32362155491261
  O           2.03005861834171     -1.60767443434711      3.02867618316385
  O           2.61703321489739      1.10186081353545      2.93035678347405
  O           3.37048099922985     -1.95160704557782      0.66996263262270
  O           3.54066299723175      1.09353261901210      0.48261246934513
  O          -4.26557590805050     -0.51183189749822     -0.38649952012198
  O          -3.71630997490040      2.22170058333783     -0.91308866603066
  O          -2.91451321792553     -1.39509272851538     -2.43933043693514
  O          -2.50469336273312      1.47377789465293     -3.26947584144379
  O          -0.36286374914788      2.06030552277674     -3.72544029548968
  O           0.98990649763339      3.66847859904822     -1.78813924897683
  O           1.78616400684894      0.39461170913499     -3.71707738067902
  O           2.97710194689161      1.99471602818989     -1.52577812298177
  O          -3.36910678772835     -1.82740129515585      1.23694272392077
  O          -2.26510315577670     -0.29369534716514      3.52865628550529
  O          -1.39616458890088     -3.50212820880745      1.45993958883970
  O          -0.14444718747842     -1.98469428216661      3.54946103214656
  C          -2.48760891080079      0.86915870089129      3.94820856445899
  C          -3.61573233215288      3.12870719811850     -0.03459466657138
  C           2.12248889566751      2.12442645825126      3.45467782573100
  C           0.95134503867026      4.13705073496811     -0.62326006630850
  C          -0.97140815949839     -4.21873245216602      0.50846781710129
  C          -2.27294367014151     -2.25993359665411     -3.12346025981457
  C           3.30020958287334     -2.88750626649228     -0.18486094443059
  C           1.98636350258907     -0.82647372470101     -3.99986376338125
  C           1.10592221156731     -2.07574979739787      3.75767001420395
  C           3.80229154336785      1.66395660632668     -0.62621512349869
  C          -4.34069031807868     -1.30033083639059      0.59689243716573
  C          -1.59948636467758      1.99518273911874     -3.99368415324733
  H          -2.81691796579003     -2.69621078426250     -4.01108104428746
  H           4.17034370716923     -3.60295522815744     -0.22620404470569
  H           2.64717768257478      2.57237990418946      4.34707322487143
  H          -4.40804084044083      3.92808653227468     -0.02537137675207
  H           2.56030747635374     -1.04015625155272     -4.94596716956148
  H          -1.93138768798657      2.44197159740855     -4.97388451648443
  H           1.02770929252087      5.25657932473121     -0.50245748178375
  H           4.88552069816992      1.91890574680829     -0.81196873667227
  H          -0.99740635455347     -5.33595415422520      0.66604776321228
  H          -5.37602799230761     -1.58654201452094      0.94248483005972
  H          -3.10959963758487      0.97413138668602      4.87966771868478
  H           1.42233694877177     -2.62945881583235      4.68733274788073
  Al         -4.27539761505283      5.86063588672116      2.90515260235567
  Al         -4.34748405175488      8.98344149652353      2.98216269633081
  Al         -3.34848163611987      6.92771452180232      5.24265290651911
  Al         -2.50674191885601      3.75707497233202      4.65847475559451
  Al         -0.20403432127540      7.56989053301132      4.49975235668289
  Al         -1.23720704574372      8.50816877852155      1.55071853054709
  Al          0.35297244915705      4.49027716908145      3.56388185733550
  Al          1.72438000730844      6.97260108915202      2.06568566870137
  H           3.20145899230247      7.11117277359390      1.42496591470547
  H           1.50242020885210      7.58217324214267      3.59981832866246
  H           1.24602818299465      5.37177076712979      2.19294593489310
  H           0.50547698330614      7.71498347368263      1.19047604219309
  H          -1.94730390355059      7.16857895471551      0.98073728576463
  H          -0.83194842911222      9.89083770803911      0.82276019957511
  H          -2.85707150631009      9.23699447804412      2.26657715808775
  H          -5.35500507076788     10.23502146489576      2.82240663162295
  H          -0.73626328781542      8.64279995497091      3.23778466543944
  H          -4.03638838541522      8.54757618494973      4.57265353296033
  H          -1.80183108845150      7.71660608243579      5.24177772833947
  H          -4.00008501564525      7.21047253161899      6.69608168659237
  H          -2.62741576310058      5.34834597976062      5.43461027051511
  H          -0.83121446469148      3.84121615920386      4.82601890041903
  H          -3.29122846998256      2.88611295236350      5.77701555998115
  H           1.43652519241138      4.88297073974460      4.72447252201193
  H           0.63046679074432      8.03421300260911      5.79706465018531
  H          -0.57481197202138      6.09879597121938      3.77986912524966
  H          -5.03729726053605      5.20576318067467      1.64721801795720
  H          -4.94200871700666      7.54242841267347      2.34705251863342
  H          -3.40910317692031      4.29894846070509      3.34503046168543
  H          -4.91901226407600      6.04717050084009      4.46602169529297
  H          -0.84246324080192      4.09610363772777      2.38029418192436
  H          -2.87180693456939      6.68043029956380      3.35807709954673
