84
Coordinates from ORCA-job run E -4464.473621315220
  Zr         -0.23785463446091      1.78497192080326      1.59038718130240
  Zr          0.17192523389115     -1.99836847351451     -1.81849735978394
  Zr          1.63574476507762     -1.44682736852520      1.28616531856829
  Zr         -1.70473124941664      1.21196701881503     -1.49591861070814
  Zr          1.77293555713068      1.05522665738417     -1.49099679005873
  Zr         -1.82323317112472     -1.29727093832550      1.27261070936592
  O          -1.79775525232375      0.63001131681269      0.49217134881987
  O           1.72201393497439     -0.86249838941455     -0.70629256620759
  O          -0.21671350315115     -2.07244035160818      0.22986534038006
  O           0.14871207939162      1.83354152436406     -0.44009707604100
  O          -0.10198589179817      0.03255322857602     -2.11440961306499
  O           0.04337713419075     -0.25826633803841      1.89587275721991
  O          -1.69456063884299      1.67600030208350      3.25692110447924
  O          -1.62291375743748      3.50105279281667      1.23951950141109
  O           1.42472591042326      1.66220269471375      3.08196237846520
  O           1.21521870228405      3.52621704481564      1.29483012428122
  O          -1.52772900987237     -3.42855836583235     -1.59675653233315
  O          -1.19538147413348     -1.83705199710393     -3.63155802555429
  O           1.46414673190824     -3.77213008330807     -1.43353822184688
  O           1.66797316227194     -1.92984651752949     -3.45884771004753
  O           0.95200449048311     -2.91168046343990      2.82066404421813
  O           2.39507539045122     -0.40130162366170      3.15871401733857
  O           2.44520922447928     -3.39378483933018      0.57785176894512
  O           3.72577655299006     -0.70809120009204      0.97084141257814
  O          -3.89888516216415      0.74076646952663     -1.10577880939017
  O          -2.44893301413635      3.20173725751926     -0.85285173613780
  O          -2.50801679180663     -0.03783787446050     -3.16054007742535
  O          -1.02966816627282      2.59765762777075     -3.10588930801547
  O           1.23924065450280      2.54520207971611     -3.05401186420500
  O           2.59244336615016      2.78840791125506     -0.36180697353653
  O           2.56821617548211      0.15253086578896     -3.36582614439986
  O           3.91420596338514      0.60401982601189     -0.88196609282229
  O          -3.83540037323107     -1.01975361568181      0.33880990006884
  O          -2.75510452393039     -0.32556784379056      3.06949362902936
  O          -2.56216966320656     -3.28464729510515      0.42817557242151
  O          -1.30695432550269     -2.70184647672883      2.92824151939693
  C          -2.55834445852398      0.81207864475300      3.59817318084651
  C          -2.31575048061354      3.84430290782042      0.23441256441935
  C           2.14490564963314      0.75246542365436      3.60876527935388
  C           2.14135393949762      3.66729779749864      0.44797320095778
  C          -2.24090351036232     -3.87980602520504     -0.63920222156153
  C          -2.06254508203756     -0.96343674334999     -3.91742181258698
  C           2.23185755842237     -4.07774039040953     -0.47048241757376
  C           2.42287554846678     -0.99872682743584     -3.87788917895190
  C          -0.19083456173062     -3.18566567164637      3.29466653259658
  C           4.37274650102522     -0.15060332933425      0.02409551612401
  C          -4.42386697113755     -0.09852587563279     -0.32036179117343
  C           0.12290964958674      2.94818593968920     -3.50518711424756
  H          -2.51123724233556     -1.01523622415966     -4.95300234843631
  H           2.78084149969236     -5.05951593359805     -0.55244676244835
  H           2.64338424050991      1.03317110824338      4.58278230014531
  H          -2.87092304855311      4.82280480249673      0.31269094175853
  H           3.02518700666078     -1.21927914996634     -4.80554160573964
  H           0.15957081383926      3.69892823343604     -4.34614686186376
  H           2.64702241732570      4.67593667348815      0.41359717231668
  H           5.48627595413833     -0.34021839961075      0.00778715383751
  H          -2.63994754496344     -4.93070290774762     -0.77338400123385
  H          -5.54598172782269     -0.04322393466410     -0.19889072576506
  H          -3.22275814389277      1.08822278027191      4.46686657858360
  H          -0.22080136236011     -3.94412592020482      4.12875601382308
  Al          2.79792834359945     -1.96677565801597      7.02736975977512
  Al          3.30915376301252      0.95160647185708      8.03949536957670
  H           2.27476136235459      1.90225528146173      7.01167538131418
  H           2.48181960483707      0.46313821329181      9.33699214068344
  H           3.39081385072841     -0.32295639828128      6.87501375118478
  H           3.01308139385026     -2.45125423703061      8.55326680403146
  H           1.15393412934094     -1.50642431483577      6.88810033797614
  H           4.75155640446553      1.67183563269944      7.98086956811222
  Al          0.61869096988912      2.41779134673914      7.23889344041522
  H          -0.05422202828236      0.85677656277845      7.01965962930848
  H           0.42891436107389      2.80068715710093      8.79378616832881
  H           3.28681012855617     -2.72692208710292      5.69638473550988
  Al         -0.38087615832228     -0.77142985509798      6.47623912199111
  H          -0.69894103415574     -1.03833609561857      8.23236618864853
  H          -0.26158302494921     -0.63290222245704      4.88197965988169
  H           0.29770894414810      3.33653899561903      5.95611912656589
  Al         -1.77722701243914     -1.66665191927263      9.40133523917690
  H          -2.50200641049100     -0.45011305532273     10.16928890864599
  H          -1.15990809957129     -3.02047548464599     10.02053437691192
  Al         -2.77131346424953     -2.03501915024080      6.50902741979556
  H          -4.01770011987693     -2.62487099871666      5.69185272149149
  H          -1.18880301231742     -2.58542234534396      6.34428562968389
  H          -2.32956591487509     -0.40330235021939      6.47021253972916
  H          -2.99345395970545     -2.22526274820654      8.20923351470893
