24
Coordinates from ORCA-job run E -1464.536105756110
  Al         -0.10893490062319      1.13931629414825      3.11965812995815
  Al          0.32687230575253     -0.30386192459703      0.46069449616111
  H           1.49830925415979     -1.48553125190093      0.86592276842732
  H          -1.11889543860630     -0.87729897410339      0.79331546746220
  H           0.82324180292422      0.72419153794709      1.73664230367209
  H          -1.46637520487423      1.79900604635511      2.61491549177289
  H          -0.51878382674317     -0.42586501919993      3.64033643013847
  H           0.82096054227553      0.37622927623149     -0.88465058878841
  Al          1.17988093785007     -3.07861661058609      1.42190420351221
  H           0.17489850199606     -2.70979242380108      2.74489112068373
  H           0.24295533894329     -3.79480031931518      0.35285300636246
  H           0.93837116254662      1.76979184516377      4.13629612231877
  Al          0.60220915119829     -1.68107664578400      4.08341555909143
  H          -0.94216252562342     -2.42419902613812      4.63641959566606
  H           2.00960249610136     -1.07890969809006      3.62925975477573
  H           2.57828499779721     -3.60580270370931      1.96495005313549
  Al         -1.79215334128047     -2.68181040349531      6.06076501926905
  H          -2.55567024833063     -4.07343567013495      5.98641326018625
  H          -2.32744832462338     -1.30359748012646      6.64231837119205
  Al          1.13880598621936     -2.47241920242524      6.53009882947637
  H           2.26465736433021     -2.54327555465346      7.63349008420037
  H           0.66634008492601     -1.02180243882010      5.85510701476928
  H           1.33565449015419     -3.16658373853104      5.03043472403997
  H          -0.35426060647000     -3.08447591443386      7.01137878251645
