24
Coordinates from ORCA-job run E -1464.487407305566
  Al         -0.00117107296185      1.23030522760571      3.06865639627200
  Al          0.31532436683901     -0.30794061552945      0.40638500138813
  H           1.41639033716883     -1.55105091335278      0.82921386986770
  H          -1.16321738790239     -0.79752425395552      0.74289124349842
  H           0.85642955313423      0.71735564475635      1.66849270551432
  H          -1.36413904665852      1.90807085241344      2.59427062947743
  H          -0.42298049824550     -0.30404018650715      3.67516059025921
  H           0.85083137398153      0.32697035394941     -0.94915407309588
  Al          1.06937945203433     -3.11525243272139      1.45486644529459
  H           0.15148194272187     -2.64047322799975      2.80868383359560
  H           0.05120892427919     -3.83278302563100      0.45952006479327
  H           1.11053324539441      1.87362438641134      4.01092218896814
  Al          0.62870013029071     -1.61543772857143      4.13565373588027
  H          -0.96471200225965     -2.22549903592547      4.70573119798089
  H           2.06690956085583     -1.09128324420753      3.67521597898670
  H           2.47577367042763     -3.67406293100779      1.95240435651950
  Al         -1.80564819113231     -2.85429698596558      6.01850140977177
  H          -2.17466730728174     -4.37733504639743      5.74097078699970
  H          -2.69949603286385     -1.71529773540364      6.67930193080309
  Al          1.12868498578494     -2.40694677608227      6.59884796107152
  H           2.25364646837141     -2.53742933334179      7.70173385866892
  H           0.74373532395404     -0.93823874851229      5.91015743117437
  H           1.28247584350948     -3.12138195840310      5.10108905559008
  H          -0.38911363944166     -2.95467228562079      7.07731340071995
