24
Coordinates from ORCA-job run E -1463.903047566427
  Al         -0.17523335716877      1.26091821085191      3.05446843202376
  Al          0.60972449742069     -0.12537847116541      0.15686292996002
  H           1.02575466435510     -1.70345141710403      0.72617814895107
  H          -0.94477173466233     -0.17846345680262     -0.26678467150679
  H           0.71574571895758      0.68539954209605      1.68432518642209
  H          -1.53990057303327      1.93367530233734      2.51878682226938
  H          -0.62174703427866     -0.29650522972290      3.67885357742031
  H           1.87433294392114      0.40679142590382     -0.68845958252915
  Al          0.85856068428736     -3.25423970492735      1.48533447629280
  H          -0.00797196930594     -2.67127255675210      2.85932808439846
  H          -0.21663700448004     -4.08134118715220      0.61097328150740
  H           0.91450033959441      1.91097676397081      4.05076746473059
  Al          0.49895577696705     -1.58170822632359      4.15786955630786
  H          -1.02693889760300     -2.26205325120593      4.87218931723366
  H           1.90799349124371     -1.00468308792207      3.59779179572344
  H           2.32160545197593     -3.73192384299603      1.94186651773103
  Al         -1.73147293804829     -2.99481175316795      6.23746858025665
  H          -2.02615959002990     -4.54381460080208      5.90884939090007
  H          -2.65052985871862     -1.93500354690296      7.02934196795041
  Al          1.26393593131731     -2.37998619012677      6.59784896847336
  H           2.48543575429002     -2.44000191239011      7.63038105714520
  H           0.71560959193653     -0.90412638364109      5.97205848412369
  H           1.36961201291732     -3.07888330670861      5.06755337153107
  H          -0.20404390185532     -3.03473311934609      7.18297684268354
