12
Coordinates from ORCA-job run E -731.692128938093
  Al         -0.24455030393967      1.53206113296046      2.57496601912933
  Al         -0.00014500182817     -0.00076967012108     -0.10130615738149
  H           0.74864827777432     -1.00426289917592      1.04003620954438
  H          -1.17722038507429     -0.79387622117898     -0.77722117893489
  H          -0.73533039761908      1.01246016245697      1.04020189767414
  H          -1.52922134057573      2.12632218735053      3.25852282995043
  H           0.00274846789236      0.00028185966170      3.24237394344174
  H           1.16850339468339      0.78676791609241     -0.79801269248816
  Al          0.27105781590369     -1.52905144691812      2.57735029866123
  H           1.56697374698815     -2.10390950818003      3.25625865163090
  H          -1.14469884430863     -2.20076756524526      2.43341238077075
  H           1.18017457010368      2.18305405229733      2.42377779800161
