12
Coordinates from ORCA-job run E -731.687752108627
Al    -0.24218    1.52954    2.57282
Al    -0.00008   -0.00061   -0.09710
H      0.77564   -0.98303    1.05051
H     -1.15387   -0.82749   -0.76903
H     -0.76352    0.99064    1.05110
H     -1.51187    2.13848    3.26816
H     -0.28776   -0.07228    3.27632
H      1.14601    0.82111   -0.78821
Al     0.26867   -1.52666    2.57553
H      1.55034   -2.11546    3.26624
H     -1.15190   -2.17657    2.39858
H      1.18705    2.15802    2.38755
