68
Coordinates from ORCA-job run E -3488.535930827934
  Zr         -0.16530012696492      2.10257094314617      1.44278307875783
  Zr          0.14907636527473     -2.18949302308557     -1.33831794744558
  Zr          1.62317743935686     -1.13693976723679      1.62548571709071
  Zr         -1.68545252649629      1.10522288284556     -1.52623300724450
  Zr          1.77130876300180      0.85149948251492     -1.51787305862406
  Zr         -1.83301553806712     -0.94942358453590      1.59525257337331
  O          -1.75913947779112      0.83441410201177      0.54029742809800
  O           1.75239384077794     -0.91042382215683     -0.45762839737895
  O          -0.21324123518996     -1.90544095732625      0.68272499824203
  O           0.19840614192936      1.85625914038916     -0.58868300587774
  O          -0.12076625421824     -0.19876145537489     -1.92713605159949
  O           0.05252261562545      0.12320233810609      2.05951481694843
  O          -1.52819393503232      2.25176361173436      3.19450774254039
  O          -1.55616589845986      3.75319825404725      0.88524810941876
  O           1.48889011241122      2.11125399713359      2.94234583610088
  O           1.35350551309013      3.72106836890255      0.89020535055180
  O          -1.23809442396518     -3.87855335301884     -0.75121336053311
  O          -1.58704019151457     -2.21548308647296     -2.73908433068045
  O           1.68214921052101     -3.74009635348918     -0.82545229812729
  O           1.38707096040344     -2.31913599819738     -3.17979804333196
  O           0.93923278429122     -2.46885247268307      3.27071547874696
  O           2.28751437744781      0.04172859563660      3.46490005891485
  O           2.61040131439378     -3.06144403462529      1.13256109272280
  O           3.59334225085288     -0.06975278893882      1.21920083986592
  O          -3.74386838233133      0.33966614576781     -1.10500117439274
  O          -2.51051473116671      3.11837516111009     -1.07590158541724
  O          -2.39507918802518     -0.15531733549717     -3.28093829013532
  O          -0.98429327337934      2.35989362831098     -3.23332702158839
  O           1.28083028939491      2.20662343047895     -3.21477829413588
  O           2.73219705155468      2.59209055947267     -0.52903201441764
  O           2.38570127136485     -0.28896717810549     -3.30719935707590
  O           4.09367913328921      0.32300049875484     -0.96999470623534
  O          -3.97762327002301     -0.57110330748458      0.96812519039679
  O          -2.55870845469319      0.23170976997970      3.34004347312138
  O          -2.66566842611661     -2.81891972635432      0.67437692594698
  O          -1.32294592235888     -2.24844156461045      3.33009438656806
  C          -2.30624948787104      1.40792025669750      3.74033173550409
  C          -2.33829429207937      3.91294905769433     -0.09992381570336
  C           2.05358373237205      1.25945921415735      3.70938986803811
  C           2.31585879595474      3.64020494345023      0.08018802949012
  C          -2.19651088527564     -3.84300601645501      0.07384503290340
  C          -2.17204350756047     -1.37834361723016     -3.50718904443070
  C           2.52908985532422     -3.82221080197208      0.11383678289918
  C           2.11785274243072     -1.45174501147019     -3.74826217821163
  C          -0.21462652124196     -2.72002948685428      3.73416582449785
  C           4.39521651997381      0.03198511709605      0.24737858138572
  C          -4.41495357283012     -0.01417625494478     -0.07924528618572
  C           0.17489855169003      2.64225040463612     -3.66259154339556
  H          -2.54428326318273     -1.78681240350336     -4.49168334383548
  H           3.29296300360262     -4.65011619463574      0.04132932357499
  H           2.39240253793965      1.64821693773668      4.71387056445078
  H          -2.94664871300503      4.86260002237276     -0.11227676452892
  H           2.58096106698222     -1.73284171569886     -4.73490655618048
  H           0.23087517285872      3.35471716955234     -4.53507965137796
  H           2.88920387342614      4.59011925116340     -0.12639724127052
  H           5.48952383408370     -0.15305629148407      0.45001155083912
  H          -2.70605442613239     -4.82627497281986      0.29344540441770
  H          -5.52655016779692      0.17848094960769     -0.12226794311365
  H          -2.82901282246623      1.74343685621547      4.68167504489714
  H          -0.26051638310508     -3.44098485982335      4.60032256034755
  Al          5.59800860235537     -3.00554416210671     -3.02044118304933
  Al          5.61590802509938     -0.38190652428055     -2.39827376882071
  H           6.60828276797477     -1.68961667655800     -3.40214812271338
  H           5.16620589216831      0.53287087911937     -3.64486263623968
  H           4.65905215324561     -1.86438728454236     -2.10022607743133
  H           6.22855972740023     -4.02194029654613     -1.92700785671111
  H           4.70257022042911     -3.45890244903676     -4.29266737521175
  H           6.81761354864762     -0.13414913767831     -1.33877362310897
