88
Coordinates from ORCA-job run E -4708.495098311146
  Zr         -0.30751120787916      2.53497933617096      0.78301712900362
  Zr          0.43425785062775     -2.00990933962882     -1.35356490535440
  Zr          2.00689337340351     -0.34106127760651      1.26266503248407
  Zr         -1.85849169006437      0.94480996849330     -1.85818463966373
  Zr          1.59449310881195      1.17110473406512     -2.13764385711295
  Zr         -1.45518771245414     -0.61324666227655      1.57322181369959
  O          -1.71500707186309      0.95347130599188      0.22636992428306
  O           1.88717946440589     -0.39702794912835     -0.80289902143099
  O           0.18950269605500     -1.46339681760466      0.64954256724159
  O          -0.05208725762800      2.09238258854662     -1.23463980654107
  O          -0.15603942262667     -0.20273625073171     -2.18202009280529
  O           0.31656195227685      0.79986489884088      1.65621244236570
  O          -1.60077859774438      2.82911503231042      2.57999355862665
  O          -1.85587915572195      3.94098702787849      0.07368500636893
  O           1.11830365894188      3.10167533579681      2.81626284894115
  O           1.34463136109188      3.83360255636877      0.18664933354419
  O          -0.90722057063722     -3.56897721661228     -0.47805602774955
  O          -1.13438244312005     -2.55467323721853     -2.87478790903762
  O           2.03097967828377     -3.38397001835108     -0.62435988761450
  O           1.75903119368953     -2.26172588399318     -3.11879319152359
  O           1.65120360110360     -1.20998268499937      3.27972537508586
  O           2.67983625544932      1.47491991455705      2.52894235635831
  O           2.98365676049664     -2.32686282468082      1.14225634389381
  O           3.99898292503633      0.38793931810381      0.57169176741850
  O          -3.87775870404157      0.27263761368749     -1.12133588902124
  O          -2.85480462568158      2.93002128663254     -1.68916781965131
  O          -2.55247683763230     -0.78864104491838     -3.10243066877162
  O          -1.47862827010999      1.87674678531216     -3.83784661015594
  O           0.77926999714521      1.96139252770947     -4.04440789533377
  O           2.17194843271998      3.35220520830841     -1.86947842289604
  O           2.45103365473351     -0.17606941063537     -3.68192933064593
  O           3.74403918438443      1.32728468880245     -1.48683575522698
  O          -3.56326879627547     -0.79812610538593      0.86401339720687
  O          -2.36873153771691      0.75955759512433      3.08201553928584
  O          -1.97185461333203     -2.79366754039285      1.37727011640606
  O          -0.60499289872578     -1.32855548394111      3.50011407569996
  C          -2.28448271567566      2.00727786981971      3.27752724559576
  C          -2.68641498497170      3.89811308311882     -0.89052488061743
  C           2.15765110338340      2.41566021705340      3.17000267442774
  C           1.89073819210305      4.14476240497937     -0.93654545316290
  C          -1.56241743819724     -3.71034562528478      0.60291213203421
  C          -2.05831141202587     -1.90571105774889     -3.45428985730980
  C           2.85226955540896     -3.30130889509880      0.33857861761838
  C           2.40327650634553     -1.43549868966346     -3.83458725382674
  C           0.58387935900061     -1.47430310570990      3.91756538984104
  C           4.43067058195888      0.85863566351200     -0.52784992883371
  C          -4.27644216700716     -0.25620401591239     -0.04135754711287
  C          -0.40572918442519      2.17037063728290     -4.44981573796017
  H          -2.50436800261467     -2.38198656975343     -4.37453898965393
  H           3.53735975180525     -4.18219205215358      0.49849844062690
  H           2.63274682891707      2.70842701593779      4.15017374661766
  H          -3.33266318078685      4.80759029521645     -1.04227454212388
  H           2.99322456839644     -1.86228415348654     -4.69504448188892
  H          -0.51575225745883      2.66347561510453     -5.45701683314525
  H           2.15595043521739      5.23090100670547     -1.08114914071625
  H           5.55105443019618      0.87943794572530     -0.65668874676989
  H          -1.82551227204784     -4.76712621921170      0.89408542232382
  H          -5.39212088235960     -0.26852935795622      0.13175754244461
  H          -2.86089999466687      2.43561262788997      4.14294319193067
  H           0.70782244938589     -1.87499181159134      4.96373874918826
  Al          2.41497439057280      8.81139462157552     -0.88749886056075
  Al         -0.72604976393824      7.39316146504193     -0.62241597418287
  Al          3.33153741686452      6.73874707479872      1.59506842043079
  Al          0.28360711177943      7.16772683152173      2.36378541309098
  Al          2.67817352089076      6.29138858489072      4.23189380075114
  Al          0.18188643663974      4.34021648609161      4.15151599107442
  Al         -2.07683694862582      6.55208738134655      4.44805597104079
  H           2.23256268378754     10.39962599056770     -0.66499472299244
  H           2.99441490556427      8.10336187428636     -2.23005023585813
  H          -1.79548909094629      8.60587263036098     -0.63646571915801
  H          -0.69451624603409      6.19953565470516     -1.72407298184781
  H           0.86853231837247      8.04968707182016     -0.67138217320574
  H           3.22339854819304      8.13086086948453      0.45178166847241
  H           4.45212788657067      5.85028871145551      0.84323374733087
  H           3.52671296163945      7.65629544182434      2.97568608331783
  H           1.62054000243883      4.95015138083911      4.85600669086959
  H           1.27254994824525      7.17786753745877      3.92022214201845
  H           3.19305701427328      5.30101015206920      2.98443382086616
  H           3.57594162447826      6.63956678376760      5.51985018736555
  H          -0.78793943756938      5.62674353219658      5.07535638811514
  H          -2.64145872511048      7.55605902640322      5.58917913696560
  H          -3.02103196736291      5.58623617459376      3.54590335304785
  H          -1.14124498028273      7.48854825594747      3.34856719029546
  H          -0.69447856027914      6.69210288058442      0.93921437168282
  H           1.67923225398511      6.42375689329192      1.42569764188094
  H           0.64916058196596      8.70950756218651      2.00003329946011
  H          -0.04448615020690      5.37289536337115      2.78446075404403
  H          -0.34560191211747      3.17253106382566      5.15241081699065
