76
Coordinates from ORCA-job run_pre E -3976.513266137812
  Zr         -0.57058650657290      1.76025647288045      1.88036776900619
  Zr          0.27879729687252     -1.89252106852713     -1.57827874935291
  Zr          1.68915545569600     -1.21500040317172      1.54039421754438
  Zr         -1.96742872131869      1.06464216494453     -1.21466705430254
  Zr          1.51937314869380      1.32715130959362     -1.19310368752188
  Zr         -1.77647906740678     -1.48349311791295      1.51786177107495
  O          -1.97286003034335      0.44017498680121      0.75813729210225
  O           1.68679316092809     -0.57022750726249     -0.45386279896177
  O          -0.07516037318437     -2.05064917271638      0.45310444532772
  O          -0.20445575463437      1.92786022353652     -0.16509908385614
  O          -0.23615309105513      0.11738691671606     -1.84958357927508
  O          -0.03745495913433     -0.24051691537433      2.14128748721531
  O          -1.92515456302386      1.43288531617277      3.60747435957185
  O          -2.19282186879183      3.26947792589495      1.56955615997839
  O           1.07151973226233      1.77040019582908      3.40267028148561
  O           0.63633703124277      3.66933824573852      1.68621562452659
  O          -0.93158605586805     -3.80110394841587     -1.33743638356017
  O          -1.38931197123298     -1.91096566346035     -3.06344848315141
  O           1.91811281305092     -3.37631075765148     -1.31926612199928
  O           1.59836637412639     -1.53306040115577     -3.34035946312885
  O           1.19226039836551     -2.81767126173397      3.00837049228535
  O           2.25375174853886     -0.17430342133509      3.46885339176436
  O           2.76817163267621     -2.99432140196922      0.74959376879312
  O           3.63330045738174     -0.16920367865262      1.25293171280402
  O          -3.90497303604959     -0.01683077842471     -0.94332446086775
  O          -3.01515041279266      2.87629139133204     -0.50814022873783
  O          -2.54586521951966      0.04556743082843     -3.16203608950231
  O          -1.47979482036180      2.64658885363973     -2.77038033888962
  O           0.75358389823541      3.01685467336969     -2.70214633962359
  O           2.15740592544750      2.98282521808145      0.14764145410184
  O           2.24182329095533      0.63728729554149     -3.17965479073857
  O           3.71772805646919      1.05410820939978     -0.66685412290410
  O          -3.96560010895918     -1.29302842292787      0.94085863320061
  O          -2.64427047560159     -0.71128543784388      3.42552472967573
  O          -2.38924092495068     -3.27666143584763      0.33102735653879
  O          -1.07269768332354     -2.94279003421824      3.03912734940700
  C          -2.57135444298885      0.41335498972884      4.00509230621900
  C          -2.94915370088283      3.52304025934352      0.58733250879850
  C           1.82480073454572      0.90819735135952      3.96368367586850
  C           1.61439372044113      3.85479820773271      0.90959693389642
  C          -1.83442246897654     -4.07479322756151     -0.49598619962785
  C          -2.13076628718303     -1.04766573785462     -3.64112928456734
  C           2.71012772874197     -3.61364372047984     -0.35737883379847
  C           2.16771482324682     -0.48457617153268     -3.77077519442975
  C           0.08949847970577     -3.29526296025308      3.41222117033994
  C           4.23716816890899      0.40515710398003      0.28396981387180
  C          -4.49819601344524     -0.62683099238093      0.00804488837097
  C          -0.44644403787730      3.24265326890725     -3.13612625890496
  H          -2.46371362817299     -1.30059661413755     -4.68971604689856
  H           3.43853846435761     -4.46251319814943     -0.50031399181095
  H           2.15864136189770      1.14911679903799      5.01476275984020
  H          -3.63912494004072      4.40835815801475      0.68911701485883
  H           2.66057815966361     -0.55323680520049     -4.78231335554918
  H          -0.54148886369704      4.05080306411319     -3.91643269777661
  H           2.07254068086689      4.88559198913995      0.88889867480614
  H           5.36370877731189      0.33415260045044      0.29113360826339
  H          -2.20646496388200     -5.14059808426284     -0.48280646377804
  H          -5.62603231719231     -0.57696815158988      0.00225442295388
  H          -3.13774452456617      0.52270876319463      4.97388426012726
  H           0.14480062526148     -4.11721060532349      4.18201885802443
  Al          2.36072878821710      4.32553146896690     -3.14173851334506
  Al          0.58954559458012      6.71591370658159     -1.83772466633214
  H           1.49335027231888      7.43605889500182     -0.54458071473969
  H           0.77079184646513      7.58744777685465     -3.18264751489755
  H           1.59626175827264      5.32846609390560     -1.91208963269269
  H           1.84625076722754      4.68793375503452     -4.63329678629445
  H           3.64112309772451      5.70311313119158     -3.19203604548355
  H          -0.80977450431667      6.22038263622072     -1.19419006212195
  Al          2.78845030222670      8.61703835633726     -0.65632273108185
  H           3.71471374398007      7.89397681299607     -1.91577893840602
  H           2.15557789298479      9.96442879378066     -1.28066357510508
  H           3.38040794544112      3.22964638068907     -2.52961049106953
  Al          4.54611424315275      6.32448250971464     -1.90786340146358
  H           6.05733176132960      6.66884522326034     -2.36236824016669
  H           4.12724947791084      5.64453932424815     -0.49876214144550
  H           3.54955275289823      8.48185935002441      0.76071176256369
