20
Coordinates from ORCA-job run_loose E -663.522269097724
  O      -3.168900     -1.483100     -0.500700
  O       3.542900     -1.216100      0.090600
  O      -3.508000      0.536500      0.485400
  O       3.622600      1.048900     -0.081300
  N      -1.394900      2.226600     -0.153400
  C      -0.645300      1.032700     -0.065600
  C      -1.279700     -0.205900      0.029800
  C       1.506500     -0.063500      0.009600
  C       0.747700      1.103900     -0.075600
  C      -0.521000     -1.373200      0.115200
  C       0.872100     -1.302200      0.104900
  C      -2.732900     -0.314700      0.042200
  C       2.958900      0.010100     -0.001000
  H       1.236300      2.073000     -0.150200
  H      -0.984600     -2.352300      0.204100
  H       1.424100     -2.235200      0.176200
  H      -0.916400      3.115100     -0.223000
  H      -2.405100      2.205000     -0.158500
  H      -4.147700     -1.548600     -0.488700
  H       4.522000     -1.155400      0.083300
20
Coordinates from ORCA-job run_loose E -663.532333054872
  O      -3.216804     -1.525519     -0.438167
  O       3.606801     -1.188541      0.097014
  O      -3.565488      0.571730      0.325228
  O       3.617742      1.063586     -0.084631
  N      -1.362079      2.226533     -0.133745
  C      -0.652258      1.044662     -0.073563
  C      -1.307240     -0.214057      0.008534
  C       1.510533     -0.087463      0.007408
  C       0.756788      1.089675     -0.085129
  C      -0.536987     -1.391258      0.101806
  C       0.861326     -1.335028      0.109673
  C      -2.781828     -0.313679     -0.008417
  C       2.987337      0.016802      0.000162
  H       1.271116      2.059471     -0.154408
  H      -1.023096     -2.373448      0.174111
  H       1.424420     -2.273671      0.188064
  H      -0.861990      3.110415     -0.203732
  H      -2.379866      2.222598     -0.067448
  H      -4.200771     -1.548595     -0.405403
  H       4.580944     -1.052612      0.085944
20
Coordinates from ORCA-job run_loose E -663.535892963959
  O      -3.246610     -1.550214     -0.356511
  O       3.633379     -1.173247      0.099074
  O      -3.573994      0.617019      0.167948
  O       3.605809      1.077416     -0.076371
  N      -1.352796      2.214893     -0.122577
  C      -0.657357      1.048028     -0.073413
  C      -1.315067     -0.226116     -0.008460
  C       1.510619     -0.107143      0.006301
  C       0.762191      1.072683     -0.083229
  C      -0.536575     -1.405441      0.084695
  C       0.859798     -1.360820      0.103960
  C      -2.796042     -0.309304     -0.043893
  C       2.999126      0.022964      0.001952
  H       1.294585      2.036255     -0.145428
  H      -1.042142     -2.381401      0.141707
  H       1.437195     -2.293944      0.183074
  H      -0.849910      3.099431     -0.181848
  H      -2.371512      2.206722     -0.019463
  H      -4.232080     -1.508611     -0.322729
  H       4.599983     -0.977572      0.088510
20
Coordinates from ORCA-job run_loose E -663.537243752085
  O      -3.264021     -1.566241     -0.240539
  O       3.642071     -1.170007      0.098988
  O      -3.557175      0.652811      0.019808
  O       3.601151      1.084088     -0.050134
  N      -1.358224      2.209452     -0.119846
  C      -0.657961      1.047474     -0.075672
  C      -1.311784     -0.234082     -0.032934
  C       1.509793     -0.116257      0.007321
  C       0.764629      1.063855     -0.073748
  C      -0.531843     -1.413299      0.053747
  C       0.861451     -1.374234      0.084501
  C      -2.789943     -0.303234     -0.082806
  C       3.001750      0.025490      0.016217
  H       1.305256      2.023787     -0.121268
  H      -1.050662     -2.383434      0.093160
  H       1.448530     -2.301273      0.158592
  H      -0.862236      3.099769     -0.153761
  H      -2.379168      2.182982     -0.017103
  H      -4.247855     -1.478232     -0.214469
  H       4.604841     -0.947816      0.093244
20
Coordinates from ORCA-job run_loose E -663.537737948801
  O      -3.277106     -1.566093     -0.122274
  O       3.643879     -1.170158      0.096858
  O      -3.538690      0.671068     -0.095568
  O       3.600010      1.087523     -0.010425
  N      -1.364166      2.204119     -0.123379
  C      -0.657096      1.046087     -0.070365
  C      -1.306783     -0.239484     -0.041242
  C       1.509195     -0.119268      0.004939
  C       0.765289      1.060781     -0.056170
  C      -0.525747     -1.418393      0.022118
  C       0.865238     -1.381289      0.051570
  C      -2.780616     -0.300988     -0.070511
  C       3.001181      0.026393      0.019932
  H       1.309334      2.018801     -0.090347
  H      -1.053985     -2.383503      0.048815
  H       1.461093     -2.302955      0.108731
  H      -0.878485      3.100709     -0.123744
  H      -2.390636      2.151253     -0.080057
  H      -4.258204     -1.446061     -0.133602
  H       4.604894     -0.936943      0.108023
20
Coordinates from ORCA-job run_loose E -663.537898252094
  O      -3.272902     -1.570225     -0.024931
  O       3.636402     -1.175014      0.091563
  O      -3.542669      0.661635     -0.130813
  O       3.601065      1.085052      0.035199
  N      -1.360747      2.210234     -0.139804
  C      -0.655777      1.050094     -0.076849
  C      -1.305513     -0.236482     -0.065945
  C       1.507043     -0.115429      0.013457
  C       0.764580      1.065091     -0.035177
  C      -0.524646     -1.415301     -0.017014
  C       0.865115     -1.378305      0.022184
  C      -2.775883     -0.305208     -0.092064
  C       2.996540      0.025944      0.052271
  H       1.309140      2.022484     -0.047078
  H      -1.056207     -2.378245     -0.007858
  H       1.463731     -2.298084      0.065128
  H      -0.877706      3.107022     -0.108571
  H      -2.387642      2.145352     -0.167668
  H      -4.253848     -1.451259     -0.030218
  H       4.598525     -0.947753      0.107487
20
Coordinates from ORCA-job run_loose E -663.538028821376
  O      -3.268729     -1.571688     -0.059272
  O       3.634198     -1.176173      0.093629
  O      -3.544034      0.662311     -0.113027
  O       3.603650      1.082751      0.020691
  N      -1.361369      2.210679     -0.134309
  C      -0.655252      1.050092     -0.077977
  C      -1.306003     -0.233272     -0.054104
  C       1.508166     -0.112456      0.009832
  C       0.764529      1.068260     -0.043844
  C      -0.526265     -1.412887     -0.000573
  C       0.864841     -1.374328      0.031614
  C      -2.776872     -0.303706     -0.080084
  C       2.996672      0.024943      0.040716
  H       1.306437      2.027170     -0.061386
  H      -1.054400     -2.377656      0.015942
  H       1.460515     -2.296229      0.075186
  H      -0.876379      3.106526     -0.119081
  H      -2.388261      2.149043     -0.135152
  H      -4.250494     -1.464164     -0.074508
  H       4.597649     -0.957616      0.109007
20
Coordinates from ORCA-job run_loose E -663.538035211811
  O      -3.268863     -1.571262     -0.055732
  O       3.633766     -1.176404      0.092131
  O      -3.544341      0.662162     -0.117263
  O       3.604226      1.082383      0.022665
  N      -1.361438      2.210573     -0.133014
  C      -0.655143      1.050273     -0.076085
  C      -1.306263     -0.232603     -0.052128
  C       1.508567     -0.111575      0.009521
  C       0.764667      1.069208     -0.042840
  C      -0.526294     -1.412661      0.000008
  C       0.864977     -1.373483      0.031014
  C      -2.777081     -0.303579     -0.078287
  C       2.996732      0.024850      0.040667
  H       1.306019      2.028507     -0.059367
  H      -1.053880     -2.377647      0.016541
  H       1.460540     -2.295641      0.072324
  H      -0.876219      3.106350     -0.122069
  H      -2.388311      2.147116     -0.136814
  H      -4.250512     -1.465158     -0.075992
  H       4.597450     -0.959809      0.108020
20
Coordinates from ORCA-job run_loose E -663.538037241784
  O      -3.269012     -1.570984     -0.051538
  O       3.633623     -1.176463      0.091251
  O      -3.544716      0.661986     -0.120407
  O       3.604501      1.082329      0.025935
  N      -1.361450      2.210787     -0.131146
  C      -0.655101      1.050429     -0.075457
  C      -1.306595     -0.232199     -0.051708
  C       1.508888     -0.111033      0.008751
  C       0.764862      1.069773     -0.042341
  C      -0.526364     -1.412608     -0.000536
  C       0.864931     -1.372936      0.029565
  C      -2.777407     -0.303634     -0.078370
  C       2.996928      0.024784      0.040219
  H       1.305796      2.029365     -0.057514
  H      -1.053453     -2.377846      0.015975
  H       1.460323     -2.295345      0.069109
  H      -0.875642      3.106263     -0.124902
  H      -2.388319      2.145917     -0.138578
  H      -4.250637     -1.465895     -0.073927
  H       4.597445     -0.961092      0.108920
20
Coordinates from ORCA-job run_loose E -663.538037818605
  O      -3.269305     -1.570661     -0.050303
  O       3.633844     -1.176407      0.088059
  O      -3.544732      0.662129     -0.124135
  O       3.604593      1.082473      0.027093
  N      -1.361554      2.210881     -0.128555
  C      -0.655137      1.050461     -0.074083
  C      -1.306897     -0.232042     -0.050564
  C       1.509101     -0.110738      0.009990
  C       0.765007      1.070017     -0.040712
  C      -0.526448     -1.412670      0.000506
  C       0.864789     -1.372617      0.030425
  C      -2.777721     -0.303609     -0.078369
  C       2.997160      0.024861      0.042230
  H       1.305602      2.029842     -0.054968
  H      -1.053104     -2.378154      0.017073
  H       1.459988     -2.295234      0.069319
  H      -0.875085      3.105991     -0.128180
  H      -2.388399      2.144860     -0.140706
  H      -4.250906     -1.466085     -0.075195
  H       4.597804     -0.961699      0.104375
20
Coordinates from ORCA-job run_loose E -663.538039059228
  O      -3.269324     -1.570781     -0.051496
  O       3.634010     -1.176281      0.088385
  O      -3.544684      0.662197     -0.122738
  O       3.604360      1.082666      0.026987
  N      -1.361492      2.210923     -0.127690
  C      -0.655209      1.050410     -0.073818
  C      -1.306873     -0.232236     -0.050635
  C       1.508993     -0.111014      0.009777
  C       0.764950      1.069705     -0.040894
  C      -0.526460     -1.412730      0.000473
  C       0.864724     -1.372856      0.030493
  C      -2.777725     -0.303652     -0.078661
  C       2.997197      0.024892      0.041288
  H       1.305648      2.029453     -0.055642
  H      -1.053199     -2.378188      0.016871
  H       1.459923     -2.295444      0.069781
  H      -0.874835      3.105932     -0.128691
  H      -2.388318      2.145379     -0.140626
  H      -4.250972     -1.465810     -0.075105
  H       4.597886     -0.960964      0.105242
