72
Coordinates from ORCA-job run_pre E -3732.534390861451
  Zr         -0.46991867284874      1.88927538129734      1.91470268655727
  Zr          0.41094846224240     -1.79278424458503     -1.49466168028514
  Zr          1.44899783944693     -1.36653549527425      1.78746570749816
  Zr         -1.45056987063152      1.45201913450917     -1.37636884638101
  Zr          1.98315982571774      1.26169819436193     -0.81031147933201
  Zr         -1.98479431990876     -1.15100763896170      1.31228611322616
  O          -1.80462821782559      0.77737521529180      0.57126809114237
  O           1.85388935519992     -0.66809250122926     -0.10497969247238
  O          -0.23703694879189     -1.91866562651673      0.46689136410302
  O           0.21948340315647      2.10296993512002     -0.05534774385396
  O           0.21342509752701      0.26178538966280     -1.73141145926136
  O          -0.20441597864587     -0.16110906059201      2.22211269434959
  O          -2.09002977403063      1.72861179099801      3.42793762768065
  O          -1.84230933390007      3.58965052106509      1.45653737789495
  O           0.85549025220502      1.71645166219943      3.75080630083027
  O           0.97542032726019      3.65322967655064      2.01330047217516
  O          -1.09861598756624     -3.48681434638020     -1.49279508706915
  O          -0.96137459190617     -1.56021456398787     -3.23230816322732
  O           1.72592137592199     -3.53027492587771     -1.03529112190768
  O           2.02220484413598     -1.66729677988972     -2.99698453834078
  O           0.54122068396425     -2.76643270584392      3.26683898637457
  O           2.11732617924068     -0.15978580133177      3.52039362408139
  O           2.20012083548012     -3.37868585430666      1.17710369627257
  O           3.76999911350570     -1.13969761524806      1.72496392248791
  O          -3.51376639379538      0.58829699087020     -1.41640752146215
  O          -2.45547445332282      3.31840965705889     -0.71027531340141
  O          -1.83466287336311      0.53306483520575     -3.41847057675511
  O          -0.59242945694494      2.99627274643166     -2.71958775769729
  O           1.64495571774765      2.78328873113563     -2.41198145185998
  O           2.59224431143919      2.44701546035439      0.99565129366454
  O           3.03587529167334      0.31788415817532     -2.58255270132437
  O           4.25512148666453      0.48550312363401      0.21817023063647
  O          -4.01481150507430     -0.67000327525661      0.41364844517189
  O          -3.03419871756478     -0.30408625462511      3.08787363257367
  O          -2.65616490049090     -2.86219215806459      0.04472295599700
  O          -1.69349656511033     -2.69375144009343      2.89491120290125
  C          -2.90729272991901      0.79729447410883      3.70357444866804
  C          -2.46009510992142      3.92978146750089      0.40379139141419
  C           1.63406930367888      0.81846501134576      4.17996941324219
  C           2.13563844918262      3.51773186015895      1.54371005823391
  C          -2.11420708792287     -3.68381657790170     -0.76553030003443
  C          -1.49454607231199     -0.59475186111102     -3.87484089692935
  C           2.22378022039254     -3.95939840333334      0.04983450091510
  C           2.88330181030181     -0.76018272113832     -3.22612456426310
  C          -0.65712909350922     -3.11707346103622      3.49258289732949
  C           4.56740966730141     -0.45265642192264      1.05168443549527
  C          -4.31373038199247      0.05757943048168     -0.57616494160297
  C           0.61666629647240      3.31327150942834     -2.93325954326670
  H          -1.69786481213933     -0.78117744196616     -4.96942732521929
  H           2.74243821105445     -4.95988902459228      0.00701422119716
  H           1.95666002999748      0.89837036558470      5.25843256288326
  H          -3.07971769585851      4.87009719540821      0.46097215849845
  H           3.58209620331667     -0.94030312352792     -4.09283398724657
  H           0.79735478404681      4.15281367784608     -3.66405414700219
  H           2.84207183673550      4.39267386725331      1.61145265647180
  H           5.67174464308008     -0.65477024583735      1.17697161382009
  H          -2.60997678553458     -4.69414702300496     -0.85411248768388
  H          -5.41333024636629      0.24673614478451     -0.74923004961097
  H          -3.58973166225146      0.96790165288568      4.58467208337148
  H          -0.81740889923794     -3.88197100051975      4.30550104165650
  Al          5.84065560434010      5.05607203195590     -0.76040860827224
  Al          5.30015683853644      1.88236463023486     -0.69128113394250
  H           5.69925198742019      2.51287044068756      0.89074083318169
  H           3.86236093991764      2.39802626738577     -1.31590484967387
  H           6.03898534658968      3.50267779995285     -1.38337547076146
  H           4.32682884731039      5.25941235902272     -0.21454160590887
  H           6.80896947586394      4.85372618671725      0.70846386366796
  H           6.51292365075233      1.03732897276757     -1.34191302078883
  Al          6.45826601811859      3.66660555686481      1.91488980857286
  H           7.87791153442776      3.02900975638209      2.34972502713970
  H           5.32511425718259      4.22909990966810      2.92070222313389
  H           6.66898202200836      6.15499058991659     -1.60824578279403
