72
Coordinates from ORCA-job run E -3732.514444675314
  Zr         -0.24404714615738      1.98111299844838      1.67309377838376
  Zr          0.26984930779392     -2.02665437687206     -1.45402856646413
  Zr          1.82262298053535     -1.13278477956529      1.50559333435586
  Zr         -1.77007540740570      1.13111756886503     -1.30428481910545
  Zr          1.70150032416274      1.13955309041896     -1.45577469388851
  Zr         -1.67909604761511     -1.17913588406165      1.62183321805242
  O          -1.75602480637870      0.67688964025378      0.70927632879454
  O           1.78235122304542     -0.69779741847802     -0.51875245529502
  O          -0.06039069005089     -1.93673394659104      0.57925183271497
  O           0.10097415463347      1.91445620884752     -0.38004419732625
  O          -0.17231855186355     -0.03944272043172     -1.90705977237304
  O           0.19182838093514      0.00727135906167      2.09739570633505
  O          -1.63749470590185      1.92662394696784      3.41315260271171
  O          -1.67507160645700      3.64893956805557      1.26260602269919
  O           1.28438670301055      2.06089527731681      3.34341650449568
  O           1.24117947253970      3.63920192508340      1.26629699341158
  O          -1.07365644287905     -3.81306788358962     -0.98324707031824
  O          -1.41057106018701     -2.12650694542420     -2.92826783819800
  O           1.78059412792881     -3.63013139376134     -1.07513345008554
  O           1.56966966201524     -1.96420130498544     -3.25836483772735
  O           1.28145560969860     -2.44231206355503      3.23255643650263
  O           2.62596013640655      0.24139146880046      3.06551417174380
  O           2.65463459317791     -3.12192907381535      0.95837404885290
  O           3.92919662901635     -0.51499272380436      0.95408197780577
  O          -3.89834101673870      0.56023756897937     -0.78797519259801
  O          -2.57343599237240      3.14150228170738     -0.75862864058580
  O          -2.60894429121822     -0.19550576046847     -2.92427818821128
  O          -1.24974481448581      2.40912207907061     -3.07087856501152
  O           1.01832368510434      2.46441050227387     -3.10991544386439
  O           2.48700098728143      3.01127744092467     -0.53341411854461
  O           2.43852844798703      0.13324121258626     -3.31444711207708
  O           3.86632401763392      0.83682313838714     -0.88765521648750
  O          -3.82707739167421     -0.88954623748076      0.97738294636886
  O          -2.47167955015730     -0.18660877601092      3.46029488615501
  O          -2.42268752552604     -3.05980839331526      0.69360600840985
  O          -0.99028998106289     -2.50009132458895      3.27665986719687
  C          -2.34392106733776      0.99463717287372      3.90648617716624
  C          -2.41565977961662      3.88314242543444      0.25928706815981
  C           2.18451245585151      1.24820081186670      3.70830827472291
  C           2.07019164931797      3.84704900423340      0.33150197208733
  C          -1.95413303238885     -3.95463764111653     -0.08701244952516
  C          -2.21142498461961     -1.28524516117125     -3.43969149936152
  C           2.53003300898680     -3.84871717953767     -0.07533829852637
  C           2.26339225163595     -1.03452693149052     -3.77621593863541
  C           0.16358373349853     -2.81628541841852      3.70199981444445
  C           4.44637749999524      0.10135201458103     -0.02901373045760
  C          -4.41282805066108     -0.11663445723070      0.15778023335342
  C          -0.13119061029145      2.77125720261840     -3.54995211766095
  H          -2.63124368962592     -1.54776157299264     -4.45374815567832
  H           3.15275063142455     -4.78842497741357     -0.10688642054711
  H           2.66700279512087      1.44883630093830      4.70900174021478
  H          -2.99516059520627      4.85041118062247      0.27192361536474
  H           2.77875899910765     -1.27437635487739     -4.75024811589046
  H          -0.16322687649906      3.43486303152842     -4.46125946258874
  H           2.50696541609612      4.88619620883698      0.26914650479504
  H           5.56479316530762     -0.00548045527875     -0.14655953561197
  H          -2.39348157844688     -4.98835324452345      0.02915346271420
  H          -5.53303541177312     -0.03046834639233      0.27265864091734
  H          -2.92049711132687      1.24327683080857      4.84346914066569
  H           0.19797441668999     -3.50539805104545      4.59446574356725
  Al         -5.50155375034850      0.99961643269868     -4.40965814970282
  Al         -2.98845809308261      1.37917373123796     -6.42759567436246
  H          -2.99705068638166      2.91112938714733     -5.60932788321140
  H          -1.56934799245452      0.68444766998762     -6.09212727412422
  H          -4.17225452985620      0.55655961555879     -5.45958090256991
  H          -5.69738322628358     -0.13349498029809     -3.28527225932489
  H          -4.72219144668091      2.40814799685541     -3.73071315370255
  H          -3.61131144026708      1.59767429193454     -7.89678068009257
  Al         -4.12354556393917      3.79486404427232     -4.60640467009551
  H          -5.28782956508946      4.27237700135676     -5.61512466175550
  H          -3.30214683072517      4.75528004997873     -3.61147970018211
  H          -6.65386493096551      1.51857704563854     -5.41246796054268
