12
Coordinates from ORCA-job run E -731.689005167330
  Al     -0.242180      1.529540      2.572820
  Al     -0.000080     -0.000610     -0.097100
  H       0.775640     -0.983030      1.050510
  H      -1.153870     -0.827490     -0.769030
  H      -0.763520      0.990640      1.051100
  H      -1.511870      2.138480      3.268160
  H      -0.287760     -0.072280      3.276320
  H       1.146010      0.821110     -0.788210
  Al      0.268670     -1.526660      2.575530
  H       1.550340     -2.115460      3.266240
  H      -1.151900     -2.176570      2.398580
  H       1.187050      2.158020      2.387550
12
Coordinates from ORCA-job run E -731.689763681703
  Al     -0.245050      1.525772      2.572519
  Al     -0.002436     -0.000381     -0.096342
  H       0.772749     -0.980799      1.053300
  H      -1.155617     -0.827878     -0.769515
  H      -0.765003      0.990871      1.049503
  H      -1.512858      2.142270      3.266543
  H      -0.272334     -0.061881      3.273080
  H       1.145331      0.820326     -0.787111
  Al      0.264602     -1.523972      2.576499
  H       1.548815     -2.106167      3.268217
  H      -1.150527     -2.187247      2.390870
  H       1.188858      2.144775      2.394906
12
Coordinates from ORCA-job run E -731.691422484227
  Al     -0.254445      1.512074      2.572170
  Al     -0.011979      0.001996     -0.094243
  H       0.760570     -0.972976      1.062007
  H      -1.164282     -0.824614     -0.772773
  H      -0.771195      0.994675      1.044327
  H      -1.512547      2.161982      3.258924
  H      -0.228569     -0.031550      3.254583
  H       1.142053      0.818118     -0.783661
  Al      0.250788     -1.516177      2.580517
  H       1.545414     -2.064001      3.281512
  H      -1.138315     -2.233536      2.366446
  H       1.199037      2.089700      2.422661
12
Coordinates from ORCA-job run E -731.691813200861
  Al     -0.261341      1.504906      2.572236
  Al     -0.017789      0.004916     -0.093476
  H       0.752316     -0.967502      1.066535
  H      -1.169482     -0.820064     -0.775915
  H      -0.775803      1.000609      1.040658
  H      -1.512218      2.178027      3.251443
  H      -0.200101     -0.020504      3.243435
  H       1.140329      0.817081     -0.781942
  Al      0.242068     -1.515160      2.582621
  H       1.542805     -2.037958      3.291938
  H      -1.128597     -2.264685      2.356284
  H       1.204342      2.056025      2.438651
12
Coordinates from ORCA-job run E -731.691953614687
  Al     -0.265366      1.504176      2.572393
  Al     -0.019609      0.007309     -0.093552
  H       0.748691     -0.965159      1.067436
  H      -1.171086     -0.816246     -0.777777
  H      -0.778280      1.006292      1.038661
  H      -1.512907      2.187771      3.246161
  H      -0.186211     -0.023174      3.241261
  H       1.140191      0.816955     -0.781751
  Al      0.238866     -1.518912      2.582885
  H       1.541482     -2.030087      3.297642
  H      -1.124327     -2.279026      2.356331
  H       1.205085      2.045791      2.442779
12
Coordinates from ORCA-job run E -731.692091958983
  Al     -0.271449      1.506305      2.572808
  Al     -0.020488      0.011309     -0.094091
  H       0.744280     -0.962757      1.067095
  H      -1.172137     -0.809632     -0.780189
  H      -0.781559      1.016624      1.035659
  H      -1.514995      2.201987      3.238028
  H      -0.168198     -0.033840      3.241908
  H       1.141037      0.817116     -0.782426
  Al      0.236105     -1.528504      2.582128
  H       1.539974     -2.025639      3.305332
  H      -1.119874     -2.296750      2.361932
  H       1.203832      2.039472      2.444286
12
Coordinates from ORCA-job run E -731.692112139902
  Al     -0.272892      1.508318      2.573023
  Al     -0.019429      0.012272     -0.094409
  H       0.743606     -0.962959      1.066153
  H      -1.171725     -0.807793     -0.780193
  H      -0.781818      1.019703      1.034738
  H      -1.516271      2.204459      3.236548
  H      -0.165729     -0.037945      3.243963
  H       1.142044      0.817175     -0.783308
  Al      0.236621     -1.532556      2.581171
  H       1.540188     -2.028613      3.306037
  H      -1.120267     -2.298854      2.366099
  H       1.202202      2.042482      2.442650
12
Coordinates from ORCA-job run E -731.692120518588
  Al     -0.273643      1.509809      2.573198
  Al     -0.018044      0.012676     -0.094619
  H       0.743139     -0.963537      1.065399
  H      -1.171311     -0.806760     -0.779563
  H      -0.781415      1.021419      1.033927
  H      -1.517438      2.204724      3.236448
  H      -0.165636     -0.039249      3.245479
  H       1.143223      0.817009     -0.784308
  Al      0.237480     -1.535181      2.580212
  H       1.540824     -2.031853      3.305316
  H      -1.121343     -2.299005      2.369618
  H       1.200693      2.045639      2.441365
12
Coordinates from ORCA-job run E -731.692126170502
  Al     -0.274439      1.510742      2.573366
  Al     -0.016575      0.013057     -0.094759
  H       0.742191     -0.964105      1.064976
  H      -1.171142     -0.805703     -0.778573
  H      -0.780720      1.022982      1.032841
  H      -1.518683      2.204445      3.236738
  H      -0.165573     -0.038865      3.246112
  H       1.144660      0.816540     -0.785458
  Al      0.238189     -1.537230      2.579299
  H       1.541641     -2.034189      3.304171
  H      -1.122351     -2.299547      2.372877
  H       1.199332      2.047564      2.440880
12
Coordinates from ORCA-job run E -731.692130210941
  Al     -0.275358      1.511016      2.573520
  Al     -0.015196      0.013588     -0.094853
  H       0.740642     -0.964544      1.064956
  H      -1.171294     -0.804434     -0.777330
  H      -0.779799      1.024631      1.031478
  H      -1.519989      2.203906      3.237142
  H      -0.165115     -0.037479      3.245734
  H       1.146331      0.815708     -0.786717
  Al      0.238590     -1.538728      2.578577
  H       1.542526     -2.035212      3.302910
  H      -1.123023     -2.300799      2.375844
  H       1.198214      2.048038      2.441208
12
Coordinates from ORCA-job run E -731.692132172697
  Al     -0.275978      1.510670      2.573602
  Al     -0.014463      0.014133     -0.094923
  H       0.739201     -0.964719      1.065241
  H      -1.171653     -0.803395     -0.776388
  H      -0.778989      1.025832      1.030453
  H      -1.520850      2.203290      3.237399
  H      -0.164642     -0.036445      3.244753
  H       1.147586      0.814817     -0.787617
  Al      0.238597     -1.539210      2.578387
  H       1.543125     -2.034838      3.302094
  H      -1.123118     -2.301945      2.377566
  H       1.197714      2.047501      2.441904
12
Coordinates from ORCA-job run E -731.692133619247
  Al     -0.276449      1.510107      2.573664
  Al     -0.013960      0.014795     -0.095062
  H       0.737708     -0.964849      1.065596
  H      -1.172142     -0.802289     -0.775517
  H      -0.778059      1.027060      1.029523
  H      -1.521610      2.202458      3.237565
  H      -0.164399     -0.036067      3.243569
  H       1.148830      0.813713     -0.788516
  Al      0.238490     -1.539325      2.578497
  H       1.543703     -2.034010      3.301400
  H      -1.122972     -2.302881      2.379082
  H       1.197390      2.046978      2.442667
12
Coordinates from ORCA-job run E -731.692135135957
  Al     -0.276918      1.509436      2.573752
  Al     -0.013403      0.015742     -0.095374
  H       0.735770     -0.965092      1.065932
  H      -1.172879     -0.800722     -0.774457
  H      -0.776659      1.028839      1.028384
  H      -1.522577      2.201164      3.237686
  H      -0.164544     -0.036401      3.242147
  H       1.150516      0.812033     -0.789814
  Al      0.238388     -1.539400      2.578850
  H       1.544555     -2.032983      3.300536
  H      -1.122692     -2.303811      2.381199
  H       1.196973      2.046886      2.443629
12
Coordinates from ORCA-job run E -731.692136354694
  Al     -0.277251      1.509011      2.573866
  Al     -0.012911      0.016681     -0.095853
  H       0.733891     -0.965487      1.066004
  H      -1.173746     -0.799025     -0.773533
  H      -0.775057      1.030848      1.027304
  H      -1.523537      2.199785      3.237690
  H      -0.165235     -0.037389      3.241012
  H       1.152245      0.810112     -0.791292
  Al      0.238394     -1.539562      2.579342
  H       1.545585     -2.032175      3.299709
  H      -1.122363     -2.304619      2.383524
  H       1.196514      2.047509      2.444698
12
Coordinates from ORCA-job run E -731.692137136900
  Al     -0.277374      1.509005      2.573983
  Al     -0.012647      0.017254     -0.096366
  H       0.732589     -0.965958      1.065744
  H      -1.174591     -0.797665     -0.773065
  H      -0.773704      1.032532      1.026557
  H      -1.524210      2.198872      3.237537
  H      -0.166230     -0.038392      3.240462
  H       1.153479      0.808489     -0.792532
  Al      0.238499     -1.539807      2.579792
  H       1.546543     -2.031672      3.299188
  H      -1.122018     -2.305405      2.385306
  H       1.196194      2.048436      2.445865
12
Coordinates from ORCA-job run E -731.692137837649
  Al     -0.277399      1.509263      2.574119
  Al     -0.012555      0.017581     -0.096961
  H       0.731428     -0.966567      1.065231
  H      -1.175668     -0.796296     -0.772880
  H      -0.772301      1.034244      1.025884
  H      -1.524784      2.198304      3.237199
  H      -0.167488     -0.039186      3.240108
  H       1.154497      0.806815     -0.793764
  Al      0.238645     -1.540128      2.580249
  H       1.547609     -2.031003      3.298842
  H      -1.121485     -2.306665      2.386838
  H       1.196031      2.049327      2.447604
12
Coordinates from ORCA-job run E -731.692138853640
  Al     -0.277396      1.509794      2.574344
  Al     -0.012596      0.017855     -0.097925
  H       0.729572     -0.967650      1.064292
  H      -1.177713     -0.794017     -0.772800
  H      -0.769965      1.036991      1.024806
  H      -1.525653      2.197804      3.236439
  H      -0.169574     -0.039949      3.239478
  H       1.155908      0.804075     -0.795664
  Al      0.238850     -1.540651      2.580943
  H       1.549386     -2.029391      3.298447
  H      -1.120321     -2.309418      2.388960
  H       1.196032      2.050247      2.451150
12
Coordinates from ORCA-job run E -731.692140302607
  Al     -0.277385      1.510600      2.574690
  Al     -0.012839      0.018065     -0.099382
  H       0.726484     -0.969454      1.062836
  H      -1.181341     -0.790199     -0.772770
  H      -0.766078      1.041334      1.023029
  H      -1.527061      2.197399      3.234967
  H      -0.172857     -0.040573      3.238166
  H       1.157952      0.799652     -0.798527
  Al      0.239107     -1.541429      2.581936
  H       1.552231     -2.025991      3.297917
  H      -1.118058     -2.314608      2.392024
  H       1.196374      2.050894      2.457584
12
Coordinates from ORCA-job run E -731.692142006059
  Al     -0.277365      1.511494      2.575117
  Al     -0.013312      0.018134     -0.101086
  H       0.722298     -0.971851      1.061114
  H      -1.186404     -0.784991     -0.772713
  H      -0.760801      1.046835      1.020670
  H      -1.528966      2.197221      3.232744
  H      -0.177067     -0.040910      3.236009
  H       1.160390      0.793915     -0.801940
  Al      0.239374     -1.542347      2.582997
  H       1.555858     -2.020612      3.297255
  H      -1.114674     -2.321998      2.395752
  H       1.197200      2.050800      2.466550
12
Coordinates from ORCA-job run E -731.692143657674
  Al     -0.277316      1.512192      2.575536
  Al     -0.013916      0.018034     -0.102532
  H       0.717893     -0.974333      1.059590
  H      -1.191832     -0.779429     -0.772533
  H      -0.755168      1.052202      1.018268
  H      -1.531011      2.197319      3.230132
  H      -0.181409     -0.041076      3.233334
  H       1.162648      0.788176     -0.804964
  Al      0.239630     -1.543186      2.583717
  H       1.559421     -2.014216      3.296540
  H      -1.110827     -2.329860      2.399420
  H       1.198416      2.049867      2.475962
12
Coordinates from ORCA-job run E -731.692145184740
  Al     -0.277207      1.512618      2.575940
  Al     -0.014551      0.017840     -0.103514
  H       0.713824     -0.976633      1.058403
  H      -1.196929     -0.774146     -0.772178
  H      -0.749778      1.056828      1.016153
  H      -1.532961      2.197601      3.227399
  H      -0.185623     -0.041450      3.230499
  H       1.164515      0.783124     -0.807184
  Al      0.239923     -1.543883      2.583903
  H       1.562536     -2.007655      3.295807
  H      -1.107049     -2.336997      2.402812
  H       1.199831      2.048443      2.484430
12
Coordinates from ORCA-job run E -731.692146598201
  Al     -0.277028      1.512849      2.576402
  Al     -0.015177      0.017674     -0.104109
  H       0.710168     -0.978745      1.057400
  H      -1.201558     -0.769231     -0.771647
  H      -0.744675      1.060841      1.014380
  H      -1.534751      2.197973      3.224620
  H      -0.189940     -0.042379      3.227688
  H       1.166106      0.778713     -0.808718
  Al      0.240318     -1.544493      2.583584
  H       1.565304     -2.001254      3.295055
  H      -1.103522     -2.343172      2.406128
  H       1.201283      2.046914      2.491686
12
Coordinates from ORCA-job run E -731.692147730519
  Al     -0.276819      1.512964      2.576952
  Al     -0.015718      0.017690     -0.104448
  H       0.707288     -0.980461      1.056479
  H      -1.205205     -0.765233     -0.771062
  H      -0.740404      1.064105      1.013107
  H      -1.536122      2.198356      3.222195
  H      -0.194094     -0.043849      3.225342
  H       1.167430      0.775191     -0.809716
  Al      0.240790     -1.545004      2.582966
  H       1.567630     -1.995872      3.294403
  H      -1.100706     -2.347865      2.409177
  H       1.202460      2.045669      2.497075
12
Coordinates from ORCA-job run E -731.692148508114
  Al     -0.276665      1.513026      2.577552
  Al     -0.016135      0.017950     -0.104716
  H       0.705376     -0.981618      1.055605
  H      -1.207576     -0.762561     -0.770600
  H      -0.737435      1.066564      1.012344
  H      -1.536893      2.198756      3.220500
  H      -0.197603     -0.045382      3.223760
  H       1.168477      0.772674     -0.810446
  Al      0.241222     -1.545378      2.582391
  H       1.569427     -1.992065      3.293983
  H      -1.098834     -2.351041      2.411604
  H       1.203171      2.044766      2.500492
12
Coordinates from ORCA-job run E -731.692149126894
  Al     -0.276592      1.513060      2.578231
  Al     -0.016536      0.018421     -0.105069
  H       0.703916     -0.982470      1.054669
  H      -1.209319     -0.760605     -0.770260
  H      -0.735185      1.068786      1.011781
  H      -1.537270      2.199336      3.219256
  H      -0.200866     -0.046727      3.222559
  H       1.169438      0.770546     -0.811245
  Al      0.241588     -1.545668      2.581969
  H       1.571039     -1.988899      3.293754
  H      -1.097331     -2.353826      2.413659
  H       1.203649      2.043736      2.503167
12
Coordinates from ORCA-job run E -731.692149798111
  Al     -0.276596      1.513047      2.579131
  Al     -0.017085      0.019161     -0.105620
  H       0.702276     -0.983361      1.053473
  H      -1.211237     -0.758534     -0.769930
  H      -0.732798      1.071535      1.011096
  H      -1.537467      2.200403      3.217978
  H      -0.204883     -0.048027      3.221175
  H       1.170574      0.768032     -0.812418
  Al      0.241955     -1.545953      2.581625
  H       1.572972     -1.984967      3.293643
  H      -1.095413     -2.357549      2.415889
  H       1.204233      2.041902      2.506427
12
Coordinates from ORCA-job run E -731.692150560381
  Al     -0.276689      1.512939      2.580259
  Al     -0.017850      0.020187     -0.106388
  H       0.700249     -0.984386      1.052031
  H      -1.213619     -0.756065     -0.769545
  H      -0.730035      1.075032      1.010140
  H      -1.537510      2.202221      3.216514
  H      -0.210077     -0.049248      3.219375
  H       1.171892      0.764945     -0.814068
  Al      0.242327     -1.546244      2.581359
  H       1.575329     -1.979625      3.293671
  H      -1.092643     -2.362810      2.418351
  H       1.205157      2.038744      2.510769
12
Coordinates from ORCA-job run E -731.692151337721
  Al     -0.276852      1.512711      2.581377
  Al     -0.018726      0.021328     -0.107222
  H       0.698083     -0.985406      1.050663
  H      -1.216232     -0.753434     -0.769082
  H      -0.727250      1.078781      1.008968
  H      -1.537362      2.204717      3.215018
  H      -0.215978     -0.050251      3.217327
  H       1.173107      0.761792     -0.815964
  Al      0.242657     -1.546503      2.581223
  H       1.577734     -1.973347      3.293881
  H      -1.089131     -2.369083      2.420605
  H       1.206479      2.034385      2.515677
12
Coordinates from ORCA-job run E -731.692152147431
  Al     -0.277039      1.512372      2.582292
  Al     -0.019601      0.022470     -0.107998
  H       0.695961     -0.986306      1.049578
  H      -1.218897     -0.750779     -0.768482
  H      -0.724668      1.082453      1.007642
  H      -1.536963      2.207772      3.213563
  H      -0.222412     -0.051168      3.215198
  H       1.174025      0.758956     -0.817935
  Al      0.242958     -1.546730      2.581229
  H       1.579967     -1.966555      3.294314
  H      -1.085009     -2.375872      2.422420
  H       1.208209      2.029077      2.520648
12
Coordinates from ORCA-job run E -731.692153238375
  Al     -0.277240      1.511848      2.583103
  Al     -0.020601      0.023846     -0.108834
  H       0.693451     -0.987190      1.048611
  H      -1.222176     -0.747478     -0.767511
  H      -0.721745      1.086828      1.005891
  H      -1.536093      2.212056      3.211795
  H      -0.231114     -0.052519      3.212550
  H       1.174766      0.755967     -0.820399
  Al      0.243344     -1.546998      2.581385
  H       1.582521     -1.957788      3.295149
  H      -1.079339     -2.384556      2.424180
  H       1.210755      2.021674      2.526549
12
Coordinates from ORCA-job run E -731.692155151650
  Al     -0.277469      1.510869      2.584027
  Al     -0.022086      0.026062     -0.110041
  H       0.689440     -0.988254      1.047420
  H      -1.227528     -0.741981     -0.765572
  H      -0.717178      1.093868      1.002971
  H      -1.534064      2.219492      3.208876
  H      -0.246514     -0.055332      3.208089
  H       1.175541      0.751656     -0.824484
  Al      0.244047     -1.547429      2.581788
  H       1.586535     -1.942993      3.296941
  H      -1.069449     -2.398963      2.426655
  H       1.215256      2.008694      2.535799
12
Coordinates from ORCA-job run E -731.692158640806
  Al     -0.277644      1.509159      2.584565
  Al     -0.023801      0.029009     -0.111208
  H       0.685032     -0.988472      1.046675
  H      -1.233718     -0.735641     -0.762527
  H      -0.712647      1.102342      0.999341
  H      -1.529688      2.230373      3.205510
  H      -0.268446     -0.059771      3.202248
  H       1.175453      0.747882     -0.829608
  Al      0.244986     -1.547744      2.582557
  H       1.591084     -1.923183      3.300429
  H      -1.055768     -2.417662      2.428435
  H       1.221688      1.989398      2.546054
12
Coordinates from ORCA-job run E -731.692164336591
  Al     -0.277637      1.506902      2.583237
  Al     -0.024407      0.031145     -0.110884
  H       0.684691     -0.985465      1.048381
  H      -1.235121     -0.734515     -0.759535
  H      -0.714417      1.105763      0.997355
  H      -1.522442      2.240936      3.204797
  H      -0.286544     -0.063809      3.199341
  H       1.172573      0.750732     -0.832121
  Al      0.245466     -1.547239      2.583718
  H       1.592298     -1.909644      3.305721
  H      -1.045512     -2.429645      2.425161
  H       1.227583      1.970529      2.547299
12
Coordinates from ORCA-job run E -731.692172223515
  Al     -0.277453      1.503991      2.580377
  Al     -0.024156      0.032940     -0.109642
  H       0.685997     -0.979523      1.051844
  H      -1.234086     -0.735797     -0.756111
  H      -0.719832      1.107100      0.996049
  H      -1.512387      2.251726      3.205276
  H      -0.304440     -0.068551      3.197600
  H       1.168069      0.757428     -0.833495
  Al      0.245661     -1.546279      2.585288
  H       1.592205     -1.897958      3.312810
  H      -1.036491     -2.439377      2.419030
  H       1.233442      1.949989      2.543444
12
Coordinates from ORCA-job run E -731.692179404906
  Al     -0.277113      1.501266      2.578588
  Al     -0.024397      0.034792     -0.109130
  H       0.685023     -0.974564      1.053891
  H      -1.235267     -0.734676     -0.753057
  H      -0.721937      1.110811      0.994432
  H      -1.503658      2.260786      3.204606
  H      -0.322606     -0.073402      3.193905
  H       1.165408      0.760352     -0.835703
  Al      0.245943     -1.545500      2.586410
  H       1.593783     -1.883781      3.318756
  H      -1.027126     -2.451122      2.415970
  H       1.238476      1.930727      2.543802
12
Coordinates from ORCA-job run E -731.692187064516
  Al     -0.276539      1.498254      2.577783
  Al     -0.025320      0.036850     -0.109265
  H       0.682107     -0.969862      1.054847
  H      -1.238429     -0.731705     -0.750275
  H      -0.721455      1.116894      0.992448
  H      -1.495122      2.269232      3.203180
  H      -0.342785     -0.078470      3.187965
  H       1.164122      0.760134     -0.838716
  Al      0.246255     -1.544558      2.587155
  H       1.596777     -1.865617      3.324206
  H      -1.016445     -2.465725      2.415149
  H       1.243363      1.910263      2.547993
12
Coordinates from ORCA-job run E -731.692195805864
  Al     -0.275780      1.493717      2.578791
  Al     -0.028304      0.041337     -0.110995
  H       0.674343     -0.966439      1.054079
  H      -1.248303     -0.721974     -0.745480
  H      -0.714435      1.131394      0.987561
  H      -1.483761      2.284243      3.199221
  H      -0.380238     -0.086905      3.173405
  H       1.163988      0.753835     -0.846473
  Al      0.247428     -1.543731      2.588108
  H       1.602985     -1.829248      3.331527
  H      -0.993419     -2.495454      2.418715
  H       1.252026      1.874914      2.564012
12
Coordinates from ORCA-job run E -731.692200514569
  Al     -0.274548      1.487175      2.581699
  Al     -0.033192      0.047708     -0.114587
  H       0.661029     -0.963704      1.051626
  H      -1.265177     -0.704960     -0.738996
  H      -0.699440      1.154233      0.980055
  H      -1.470044      2.302372      3.193581
  H      -0.432291     -0.098473      3.148393
  H       1.165611      0.739880     -0.859085
  Al      0.249230     -1.542500      2.589249
  H       1.611348     -1.774963      3.339896
  H      -0.958739     -2.537795      2.428065
  H       1.262744      1.826716      2.592574
12
Coordinates from ORCA-job run E -731.692201698686
  Al     -0.274569      1.488549      2.582026
  Al     -0.032653      0.045499     -0.114490
  H       0.663009     -0.964354      1.051211
  H      -1.262001     -0.708695     -0.742221
  H      -0.701016      1.149584      0.981757
  H      -1.475361      2.294446      3.195335
  H      -0.416829     -0.094410      3.155251
  H       1.167095      0.739742     -0.855787
  Al      0.248475     -1.542124      2.588214
  H       1.610316     -1.787973      3.335697
  H      -0.969144     -2.526417      2.427440
  H       1.259209      1.841843      2.588036
12
Coordinates from ORCA-job run E -731.692203206416
  Al     -0.274815      1.489086      2.582493
  Al     -0.032788      0.045426     -0.115096
  H       0.662448     -0.966503      1.050642
  H      -1.263258     -0.707108     -0.742456
  H      -0.698780      1.150482      0.980818
  H      -1.477926      2.293396      3.195287
  H      -0.415666     -0.094097      3.155702
  H       1.167825      0.737686     -0.856747
  Al      0.248706     -1.542542      2.588186
  H       1.610301     -1.788803      3.334184
  H      -0.968639     -2.525945      2.429003
  H       1.259119      1.844612      2.590453
12
Coordinates from ORCA-job run E -731.692204391469
  Al     -0.274591      1.487549      2.582994
  Al     -0.033767      0.046329     -0.116001
  H       0.660317     -0.965573      1.050470
  H      -1.266173     -0.704319     -0.741801
  H      -0.695979      1.154953      0.978896
  H      -1.475633      2.295776      3.195185
  H      -0.424756     -0.096113      3.152186
  H       1.168233      0.734588     -0.859157
  Al      0.248946     -1.541984      2.588320
  H       1.611285     -1.779088      3.335444
  H      -0.962397     -2.532617      2.430621
  H       1.261046      1.836190      2.595311
12
Coordinates from ORCA-job run E -731.692205649569
  Al     -0.274312      1.485036      2.583121
  Al     -0.034881      0.047310     -0.116997
  H       0.658491     -0.962777      1.051070
  H      -1.268841     -0.702017     -0.741236
  H      -0.693836      1.160473      0.976257
  H      -1.471609      2.298490      3.196016
  H      -0.436164     -0.098899      3.149229
  H       1.168339      0.731602     -0.861846
  Al      0.249049     -1.540900      2.588540
  H       1.611865     -1.767284      3.337753
  H      -0.955013     -2.540051      2.431446
  H       1.263442      1.824706      2.599118
12
Coordinates from ORCA-job run E -731.692205969183
  Al     -0.274338      1.484568      2.582822
  Al     -0.034909      0.047306     -0.116996
  H       0.658882     -0.961769      1.051578
  H      -1.268571     -0.702406     -0.741299
  H      -0.694269      1.160878      0.975894
  H      -1.470946      2.298348      3.196449
  H      -0.436659     -0.099204      3.150239
  H       1.168188      0.731749     -0.861876
  Al      0.248949     -1.540645      2.588584
  H       1.611634     -1.767005      3.338210
  H      -0.954930     -2.539949      2.430774
  H       1.263499      1.823817      2.598095
12
Coordinates from ORCA-job run E -731.692206214686
  Al     -0.274408      1.484276      2.582535
  Al     -0.034934      0.047392     -0.116910
  H       0.659248     -0.961190      1.051959
  H      -1.268568     -0.702453     -0.741051
  H      -0.694292      1.161182      0.975704
  H      -1.470677      2.298208      3.196310
  H      -0.436824     -0.099446      3.151206
  H       1.168051      0.731827     -0.861939
  Al      0.248915     -1.540532      2.588642
  H       1.611608     -1.767120      3.338537
  H      -0.954978     -2.539915      2.430130
  H       1.263389      1.823460      2.597347
12
Coordinates from ORCA-job run E -731.692206377760
  Al     -0.274463      1.484099      2.582481
  Al     -0.035081      0.047597     -0.116903
  H       0.659183     -0.961247      1.051974
  H      -1.269285     -0.701749     -0.740486
  H      -0.693359      1.161806      0.975527
  H      -1.470842      2.298221      3.195596
  H      -0.437485     -0.099689      3.151383
  H       1.168076      0.731262     -0.862339
  Al      0.248999     -1.540508      2.588661
  H       1.611904     -1.766507      3.338627
  H      -0.954455     -2.540606      2.430005
  H       1.263338      1.823009      2.597944
12
Coordinates from ORCA-job run E -731.692206491160
  Al     -0.274495      1.483946      2.582636
  Al     -0.035331      0.047883     -0.116999
  H       0.658738     -0.961695      1.051673
  H      -1.270616     -0.700471     -0.739631
  H      -0.691637      1.162802      0.975292
  H      -1.471247      2.298417      3.194506
  H      -0.438817     -0.099982      3.150812
  H       1.168213      0.730116     -0.863120
  Al      0.249178     -1.540499      2.588628
  H       1.612412     -1.764983      3.338589
  H      -0.953287     -2.541987      2.430306
  H       1.263417      1.822145      2.599778
12
Coordinates from ORCA-job run E -731.692206552106
  Al     -0.274499      1.483838      2.582859
  Al     -0.035518      0.048073     -0.117131
  H       0.658291     -0.962101      1.051290
  H      -1.271773     -0.699446     -0.738861
  H      -0.690141      1.163649      0.975096
  H      -1.471595      2.298648      3.193667
  H      -0.440077     -0.100209      3.150037
  H       1.168319      0.729082     -0.863913
  Al      0.249343     -1.540462      2.588554
  H       1.612784     -1.763463      3.338542
  H      -0.952169     -2.543176      2.430662
  H       1.263566      1.821254      2.601668
12
Coordinates from ORCA-job run E -731.692206614505
  Al     -0.274495      1.483716      2.583138
  Al     -0.035663      0.048208     -0.117303
  H       0.657886     -0.962424      1.050819
  H      -1.272980     -0.698524     -0.737905
  H      -0.688566      1.164566      0.974875
  H      -1.471940      2.298902      3.192862
  H      -0.441475     -0.100462      3.149156
  H       1.168356      0.727979     -0.864936
  Al      0.249523     -1.540360      2.588427
  H       1.613076     -1.761775      3.338554
  H      -0.950959     -2.544316      2.430944
  H       1.263766      1.820180      2.603840
12
Coordinates from ORCA-job run E -731.692206688406
  Al     -0.274492      1.483573      2.583459
  Al     -0.035741      0.048263     -0.117514
  H       0.657636     -0.962580      1.050296
  H      -1.274214     -0.697796     -0.736666
  H      -0.686917      1.165582      0.974613
  H      -1.472273      2.299133      3.192106
  H      -0.442967     -0.100774      3.148295
  H       1.168271      0.726817     -0.866278
  Al      0.249715     -1.540169      2.588234
  H       1.613251     -1.760023      3.338682
  H      -0.949729     -2.545300      2.431003
  H       1.263990      1.818964      2.606239
12
Coordinates from ORCA-job run E -731.692206762157
  Al     -0.274491      1.483452      2.583753
  Al     -0.035721      0.048204     -0.117719
  H       0.657681     -0.962500      1.049877
  H      -1.275203     -0.697473     -0.735349
  H      -0.685536      1.166519      0.974348
  H      -1.472531      2.299251      3.191590
  H      -0.444193     -0.101097      3.147700
  H       1.168043      0.725828     -0.867724
  Al      0.249872     -1.539925      2.588008
  H       1.613257     -1.758665      3.338934
  H      -0.948812     -2.545859      2.430723
  H       1.264165      1.817955      2.608330
12
Coordinates from ORCA-job run E -731.692206824040
  Al     -0.274493      1.483406      2.583960
  Al     -0.035640      0.048065     -0.117863
  H       0.657982     -0.962281      1.049692
  H      -1.275775     -0.697533     -0.734287
  H      -0.684664      1.167201      0.974131
  H      -1.472687      2.299229      3.191402
  H      -0.444881     -0.101350      3.147443
  H       1.167745      0.725175     -0.868923
  Al      0.249955     -1.539720      2.587809
  H       1.613147     -1.757995      3.339224
  H      -0.948399     -2.545972      2.430210
  H       1.264240      1.817465      2.609672
12
Coordinates from ORCA-job run E -731.692206882939
  Al     -0.274493      1.483433      2.584136
  Al     -0.035556      0.047894     -0.117960
  H       0.658417     -0.962059      1.049672
  H      -1.276185     -0.697721     -0.733358
  H      -0.683972      1.167793      0.973930
  H      -1.472827      2.299132      3.191370
  H      -0.445287     -0.101548      3.147271
  H       1.167416      0.724627     -0.869994
  Al      0.249993     -1.539576      2.587625
  H       1.613009     -1.757676      3.339510
  H      -0.948236     -2.545951      2.429589
  H       1.264250      1.817343      2.610679
12
Coordinates from ORCA-job run E -731.692206950917
  Al     -0.274486      1.483523      2.584357
  Al     -0.035503      0.047702     -0.118037
  H       0.658971     -0.961877      1.049736
  H      -1.276738     -0.697864     -0.732242
  H      -0.683033      1.168544      0.973682
  H      -1.473045      2.299012      3.191328
  H      -0.445738     -0.101741      3.146922
  H       1.167013      0.723883     -0.871263
  Al      0.250021     -1.539475      2.587408
  H       1.612874     -1.757333      3.339826
  H      -0.948043     -2.546064      2.428834
  H       1.264238      1.817381      2.611920
12
Coordinates from ORCA-job run E -731.692207031425
  Al     -0.274469      1.483662      2.584659
  Al     -0.035515      0.047510     -0.118087
  H       0.659641     -0.961733      1.049833
  H      -1.277618     -0.697861     -0.730735
  H      -0.681590      1.169589      0.973359
  H      -1.473386      2.298920      3.191162
  H      -0.446440     -0.101941      3.146211
  H       1.166505      0.722775     -0.872895
  Al      0.250054     -1.539420      2.587129
  H       1.612740     -1.756737      3.340192
  H      -0.947626     -2.546497      2.427927
  H       1.264235      1.817424      2.613714
12
Coordinates from ORCA-job run E -731.692207123881
  Al     -0.274438      1.483817      2.585028
  Al     -0.035605      0.047345     -0.118083
  H       0.660444     -0.961549      1.049928
  H      -1.278851     -0.697723     -0.728754
  H      -0.679609      1.170926      0.972975
  H      -1.473834      2.298893      3.190821
  H      -0.447475     -0.102148      3.145100
  H       1.165876      0.721307     -0.874896
  Al      0.250097     -1.539411      2.586788
  H       1.612565     -1.755832      3.340632
  H      -0.946906     -2.547285      2.426852
  H       1.264266      1.817349      2.616079
12
Coordinates from ORCA-job run E -731.692207231065
  Al     -0.274390      1.483959      2.585427
  Al     -0.035761      0.047206     -0.117996
  H       0.661483     -0.961152      1.050016
  H      -1.280351     -0.697605     -0.726237
  H      -0.677192      1.172492      0.972556
  H      -1.474341      2.298919      3.190332
  H      -0.448794     -0.102362      3.143686
  H       1.165080      0.719575     -0.877246
  Al      0.250142     -1.539435      2.586377
  H       1.612254     -1.754749      3.341196
  H      -0.945936     -2.548289      2.425504
  H       1.264335      1.817130      2.618854
12
Coordinates from ORCA-job run E -731.692207348130
  Al     -0.274326      1.484064      2.585783
  Al     -0.035937      0.047079     -0.117806
  H       0.662834     -0.960370      1.050121
  H      -1.281851     -0.697754     -0.723335
  H      -0.674702      1.174082      0.972157
  H      -1.474824      2.298941      3.189809
  H      -0.450155     -0.102574      3.142254
  H       1.164118      0.717849     -0.879743
  Al      0.250174     -1.539469      2.585920
  H       1.611724     -1.753835      3.341905
  H      -0.944950     -2.549181      2.423828
  H       1.264426      1.816858      2.621577
12
Coordinates from ORCA-job run E -731.692207440278
  Al     -0.274262      1.484104      2.585962
  Al     -0.036047      0.046971     -0.117576
  H       0.664181     -0.959328      1.050253
  H      -1.282755     -0.698305     -0.720975
  H      -0.673088      1.175138      0.971910
  H      -1.475108      2.298889      3.189490
  H      -0.450983     -0.102731      3.141422
  H       1.163258      0.716778     -0.881585
  Al      0.250175     -1.539486      2.585556
  H       1.611089     -1.753616      3.342571
  H      -0.944425     -2.549461      2.422246
  H       1.264495      1.816737      2.623196
12
Coordinates from ORCA-job run E -731.692207485955
  Al     -0.274222      1.484098      2.585938
  Al     -0.036053      0.046906     -0.117435
  H       0.664963     -0.958548      1.050381
  H      -1.282795     -0.698958     -0.720071
  H      -0.672877      1.175332      0.971876
  H      -1.475138      2.298774      3.189478
  H      -0.450982     -0.102781      3.141447
  H       1.162847      0.716678     -0.882138
  Al      0.250159     -1.539476      2.585417
  H       1.610665     -1.754104      3.342914
  H      -0.944547     -2.549091      2.421399
  H       1.264511      1.816861      2.623265
12
Coordinates from ORCA-job run E -731.692207505632
  Al     -0.274202      1.484094      2.585858
  Al     -0.036026      0.046877     -0.117393
  H       0.665243     -0.958185      1.050485
  H      -1.282513     -0.699399     -0.720053
  H      -0.673265      1.175137      0.971927
  H      -1.475092      2.298671      3.189560
  H      -0.450636     -0.102764      3.141774
  H       1.162755      0.716968     -0.882010
  Al      0.250152     -1.539461      2.585410
  H       1.610502     -1.754711      3.342998
  H      -0.944887     -2.548609      2.421142
  H       1.264501      1.817071      2.622772
12
Coordinates from ORCA-job run E -731.692207520347
  Al     -0.274180      1.484106      2.585793
  Al     -0.036013      0.046858     -0.117383
  H       0.665418     -0.957941      1.050599
  H      -1.282263     -0.699736     -0.720134
  H      -0.673656      1.174932      0.971975
  H      -1.475083      2.298582      3.189589
  H      -0.450268     -0.102728      3.142076
  H       1.162711      0.717248     -0.881827
  Al      0.250161     -1.539450      2.585415
  H       1.610420     -1.755280      3.343026
  H      -0.945210     -2.548184      2.420993
  H       1.264493      1.817284      2.622348
12
Coordinates from ORCA-job run E -731.692207536932
  Al     -0.274144      1.484137      2.585752
  Al     -0.036030      0.046839     -0.117384
  H       0.665654     -0.957648      1.050765
  H      -1.282102     -0.700092     -0.720070
  H      -0.673956      1.174790      0.972002
  H      -1.475149      2.298494      3.189502
  H      -0.449890     -0.102679      3.142324
  H       1.162617      0.717460     -0.881743
  Al      0.250197     -1.539442      2.585396
  H       1.610341     -1.755908      3.343073
  H      -0.945511     -2.547766      2.420754
  H       1.264501      1.817504      2.622100
12
Coordinates from ORCA-job run E -731.692207547615
  Al     -0.274105      1.484171      2.585767
  Al     -0.036082      0.046833     -0.117391
  H       0.665878     -0.957409      1.050913
  H      -1.282175     -0.700293     -0.719775
  H      -0.673927      1.174837      0.971981
  H      -1.475278      2.298464      3.189290
  H      -0.449744     -0.102643      3.142341
  H       1.162482      0.717440     -0.881887
  Al      0.250252     -1.539439      2.585345
  H       1.610287     -1.756251      3.343141
  H      -0.945586     -2.547602      2.420477
  H       1.264531      1.817582      2.622269
12
Coordinates from ORCA-job run E -731.692207549939
  Al     -0.274087      1.484184      2.585809
  Al     -0.036127      0.046839     -0.117394
  H       0.665963     -0.957336      1.050964
  H      -1.282354     -0.700282     -0.719497
  H      -0.673707      1.174977      0.971946
  H      -1.475366      2.298496      3.189119
  H      -0.449839     -0.102635      3.142203
  H       1.162395      0.717283     -0.882094
  Al      0.250285     -1.539441      2.585303
  H       1.610273     -1.756206      3.343188
  H      -0.945463     -2.547700      2.420324
  H       1.264557      1.817511      2.622600
