32
Coordinates from ORCA-job run E -1951.899104625390
  Al         -0.34685586233403      2.47805684068130      0.52396880312436
  Al         -3.06833958174796      1.00711053916855      1.26249629860346
  Al         -0.12928870618323     -0.23332219985979      0.81936687546450
  Al          2.65173019729044      1.38530585711300      0.73519044029842
  Al          0.18440116389243     -0.67203694388037      4.18155063933709
  Al         -2.17777896194544      1.73673000476636      4.48639823038301
  Al          2.32952649701234      1.93486953642845      4.11908686250244
  Al          0.31232264212209      1.30095689733995      6.68987183568092
  H           0.39995656408691      1.31527328593190      8.29782737524502
  H           0.30230690156049     -0.24373987399940      5.99814897015284
  H           1.58763336525890      2.00156532889923      5.87553221800980
  H          -1.07039539333988      1.95389890308483      6.02432193590968
  H          -1.61131186424161      3.06003331084886      3.76002813130723
  H          -3.44868374647965      1.35303274339378      5.40152862427672
  H          -3.14988232130886      1.13927197332297      2.91364387712570
  H          -4.44788076279713      0.73412428178420      0.48057353221264
  H          -1.24237167599692      0.27774933469499      4.10797541663341
  H          -1.95323587937238     -0.22633702515566      0.98731513825559
  H           0.06809847226152     -0.86676749456822      2.41581818948187
  H          -0.14251672156472     -1.50240396394764     -0.18039443349053
  H           1.67014619392056      0.01391131748890      0.63650519566004
  H           2.99402787064263      1.51803643138631      2.35662475690548
  H           3.92478335139744      1.31642821317033     -0.25051182532661
  H           3.80950526881071      1.75460246941190      4.73165338239671
  H           0.25640889077424     -2.23774126642453      4.54447152639783
  H           1.54815700177717      0.34671140341411      3.92600633626640
  H          -0.45332066281369      4.05936327078520      0.28595197947045
  H          -2.20857992130560      2.35441350442628      0.73651660420741
  H           1.53343589475661      2.58731312754104      0.39604941877637
  H          -0.34348559032245      1.13632846137562     -0.52798746233953
  H           1.41281380674594      3.15392790346786      3.59746157216334
  H          -0.15305897483135      1.41920943476621      1.84012516169818
