# Geometry optimization for (AlH3)n cluster

%pal nprocs 64 end

! PBE 	# functional used for the MOF calculations later (non-expensive)
! RKS	# closed shell for AlH3
! D3BJ  # better geometries at low cost
! def-TZVP def-ECP def2/J
! Freq 	# Frequency analysis to check the stabiltity of the structures

! NoPop # population analysis not necessary	

! RI 		# speed up calculation 
! DEFGRID3 # dense integration grid in space
! TightSCF # 
! TightOpt # thight convergence criteria for geometry optimizations

! SmallPrint


* xyzFile 0 1 start.xyz # pc-3 PBE geometry
