88
Coordinates from ORCA-job run E -4708.480948950933
  Zr         -0.41500124074995      2.12521821615550      1.66004624244614
  Zr          0.50887149121472     -1.80638495049742     -1.50031195373450
  Zr          1.99834162107575     -0.71419614519183      1.42006284655039
  Zr         -1.89647117916751      1.09258452222359     -1.31713862443658
  Zr          1.54373962605430      1.52373105166960     -1.50493105296454
  Zr         -1.44804511862344     -1.17427581111175      1.61550707694945
  O          -1.78683297558732      0.64903348531243      0.71147701093554
  O           1.87521524159263     -0.30823000394123     -0.59084671079773
  O           0.24522636215188     -1.76641315871826      0.55947156456178
  O          -0.12569432298388      2.11520813361795     -0.41069074416884
  O          -0.16174395242926      0.13067536998392     -1.91563122375223
  O           0.23894312328426      0.20889059118020      2.06539774253412
  O          -1.78998499453448      1.88669550344839      3.39241092406120
  O          -2.02698859960122      3.59953908746720      1.24487529893066
  O           1.03950848697741      2.34099214670915      3.44014649922270
  O           0.99716504770401      3.81411649922926      1.27677372609657
  O          -0.59767725349059     -3.72198942046025     -1.01599050828834
  O          -1.20249685594389     -2.05795270531886     -2.91378791099320
  O           2.22820556713949     -3.18353353986445     -1.10477152395324
  O           1.76896903012673     -1.58619842754791     -3.30975042487890
  O           1.65635737289085     -2.05114809442898      3.21190360028044
  O           2.64037886500571      0.85081347429090      2.83552392663072
  O           3.06797787304559     -2.60375024130159      0.92449610995994
  O           4.05211954974103      0.05017429574345      0.82018674843328
  O          -3.81724288200220      0.04899822155828     -0.83448272214288
  O          -2.99951516858366      2.92406566493592     -0.69240096740679
  O          -2.51112656228396     -0.20338913579154     -3.08863350724147
  O          -1.55481377760789      2.52444033666429     -2.98960319037612
  O           0.69871766154833      2.70620304194085     -3.18838444059097
  O           2.05377755642166      3.57751004607246     -0.72496284850023
  O           2.42495408084746      0.58809090584919     -3.33441376883322
  O           3.69014929082685      1.54499144577959     -0.86226453974904
  O          -3.65289227510594     -1.18183629370049      1.07749969007766
  O          -2.29694760803292     -0.32544622954158      3.48214171649498
  O          -1.98059443232716     -3.15151474580945      0.70140974830501
  O          -0.57675353449740     -2.45762789193896      3.23280251407135
  C          -2.33599618221292      0.86792919696722      3.91540417739440
  C          -2.87013158879889      3.70206600831963      0.30131358498453
  C           2.08107550277854      1.66775529099978      3.65116306164997
  C           1.64685315011888      4.24553616309608      0.26904312155222
  C          -1.42394532114728     -3.97828508954341     -0.09170540021545
  C          -2.03221360700507     -1.29432283433558     -3.51013514784279
  C           3.01696017543296     -3.32521745290312     -0.12335945656602
  C           2.38040534891723     -0.58743622557137     -3.80494630745767
  C           0.60942596238068     -2.65288786003400      3.62197911250206
  C           4.42420885568377      0.80913365473629     -0.12629653759230
  C          -4.29298783212602     -0.56713250148813      0.17462351149935
  C          -0.49582897861367      2.96204970177834     -3.53258179128096
  H          -2.39125260098007     -1.64670658694964     -4.52107783544585
  H           3.75084095320078     -4.17887874722307     -0.17832432022198
  H           2.59885929117795      1.75882612819111      4.64969959220169
  H          -3.57945581528667      4.57745587268720      0.35131912840155
  H           2.94178296993108     -0.76885629061660     -4.76605747066395
  H          -0.62865438018535      3.65211792045205     -4.41472989255232
  H           1.90369896173487      5.34434118192797      0.27623824549988
  H           5.53186393255755      0.84728022641691     -0.33406779359357
  H          -1.71476950183025     -5.06211377687784      0.03322109970931
  H          -5.41879076714742     -0.57935594346586      0.26016518515549
  H          -2.91881031070659      1.03949408949944      4.86514051369393
  H           0.75885132744625     -3.43585000207394      4.42126782219550
  Al          7.58241555387997     -1.51790186764832      1.52542301588759
  Al          6.48687502363413      1.29728940256163      3.22072628420573
  Al          5.41730881087602     -3.40920839964129      3.17125088407351
  Al          5.49817073065347     -0.90036816029364      5.08897181221778
  Al          4.51501563564316     -3.81665988812775      5.70558879942306
  Al          2.53409007100112     -1.33030737040787      6.25912333574421
  Al          4.41328501127376      0.61315525561877      7.74754413973731
  H           9.18504805368175     -1.51946594381005      1.70073964373436
  H           6.78265098808159     -1.56846537004629      0.12097286078934
  H           7.66134280367054      1.66196679346302      4.26798321309332
  H           5.78549387793918      2.35440524868275      2.22480669583931
  H           7.03344131184662     -0.07935928290295      2.33021191194364
  H           6.94759094567504     -2.75736427093708      2.53127159577891
  H           5.02748489027796     -4.49851535581666      2.06144655099139
  H           6.10125380231167     -3.98795235127692      4.64504920154894
  H           2.83239402787832     -2.96575322726444      6.41175691581430
  H           5.15172611413307     -2.31643418855288      6.17392959431437
  H           3.72494715804594     -3.88720587150381      4.25060624774784
  H           4.61618972373152     -4.99871486180129      6.78678349221182
  H           3.31278566252201     -0.76703395616125      7.70164913048388
  H           5.07254893313013      0.51854433624586      9.21416406911443
  H           3.57189551743898      1.86365588045345      7.13954186362908
  H           5.53817083992934      0.07057954872707      6.59135963443420
  H           5.23099247728100      0.55162331338530      4.15429357480616
  H           4.91471832094756     -1.84168145902893      3.57400766649193
  H           7.08069019199753     -1.19033181735544      4.91888826606428
  H           3.60264746393620     -0.70648094429306      5.12660566182491
  H           1.01182245813527     -0.81549758234430      6.22535954137098
