88
Coordinates from ORCA-job run E -4708.483992998472
  Zr         -0.04756892116175      1.99412833587199      1.80461238332779
  Zr         -0.23450181732552     -1.39484042395832     -1.99540107252880
  Zr          1.46818114148679     -1.33797562539032      1.01883815169230
  Zr         -1.74739648089315      1.95223989122637     -1.21160120115242
  Zr          1.67907225238951      1.44916617468940     -1.48554956173690
  Zr         -1.96545450770840     -0.85927457405468      1.26030938202305
  O          -1.77157771262452      1.12128267219646      0.68475439053301
  O           1.48563622854303     -0.53129926613221     -0.89829485853941
  O          -0.49799247301367     -1.68444758790933      0.03486481334995
  O           0.23294364124634      2.26547248204600     -0.23571734648442
  O          -0.33525363243928      0.68226807210526     -2.06413382459650
  O           0.05442605603507     -0.07934013182229      1.84658235885733
  O          -1.39226167229049      1.81601959951922      3.57628406783657
  O          -1.24661879296629      3.86915544095216      1.76923227614462
  O           1.53035716941223      1.50922336978397      3.32847696409728
  O           1.65243844059183      3.47090380893941      1.63347513144262
  O          -1.83923824405976     -3.01764869917087     -1.83506524562630
  O          -1.93001934887322     -0.94476779051291     -3.37171984516521
  O           1.01642163444177     -3.28534342419721     -1.96682917019525
  O           1.05202804362472     -1.21976731243659     -3.78402830496993
  O           0.73587236623993     -2.86963760273879      2.47531714916720
  O           2.43873892429106     -0.53194947694588      2.88811588483129
  O           1.97784081821925     -3.30363631736441      0.09120235800938
  O           3.62078833648861     -0.87272995917723      0.58069442108510
  O          -3.90467756033000      1.44812740646343     -0.81147088309347
  O          -2.30518051617081      3.88258294355747     -0.23562787911466
  O          -2.71793816567172      1.17388844437276     -3.09929661366741
  O          -1.01592518898736      3.49885353288065     -2.64275805246828
  O           1.21041532982862      3.13234532279076     -2.86706904156544
  O           2.73631811893305      3.05053826213264     -0.32310663239092
  O           2.26885333874483      0.67080798877280     -3.49885808944250
  O           3.77903411432602      0.75411008204845     -1.00854518671905
  O          -4.06360216199172     -0.18734326386192      0.76697867947373
  O          -2.58571740502205     -0.08881474197203      3.25955828110884
  O          -2.98692915496770     -2.45930944274718      0.05289788709195
  O          -1.50163070814491     -2.54010554767098      2.64431122375305
  C          -2.24299838045684      0.93929952532384      3.92021247391513
  C          -2.00838888953158      4.38115877588650      0.89283375288586
  C           2.20881789187221      0.47636195234970      3.62373377047793
  C           2.46310508705032      3.75327986592199      0.70123678455821
  C          -2.69451327387079     -3.22573076914369     -0.91846162336490
  C          -2.56731556265872      0.09665548470609     -3.74459384665294
  C           1.68351538685058     -3.82216159938555     -1.02228642710789
  C           1.90139940976027     -0.34584048627058     -4.15613030387074
  C          -0.41561682772525     -3.13103051937990      2.93665734677051
  C           4.23657862059128     -0.19429188265899     -0.30361867214845
  C          -4.52457665544490      0.75810684278852      0.05782831414495
  C           0.12977828064507      3.74786786168065     -3.12566756903413
  H          -3.06377512859479      0.04049384484429     -4.75341007378081
  H           2.05376855820895     -4.87207827868043     -1.20496443560392
  H           2.67368492925706      0.46258769794452      4.65199155131369
  H          -2.46896577868565      5.37838706435917      1.14541869690690
  H           2.36864857067289     -0.50495303602064     -5.16973704573739
  H           0.19726371096040      4.59926747417577     -3.86097116402811
  H           3.02475610771808      4.72670562161446      0.80047767459359
  H           5.32126440430438     -0.46472829877930     -0.46267928403890
  H          -3.27119835283139     -4.19290883384758     -0.98501350494209
  H          -5.61695183398113      1.00336888106832      0.20135153366137
  H          -2.74876067530891      1.08993136392173      4.91669049639933
  H          -0.48409457098480     -3.97410991790042      3.68196572582522
  Al         -3.80817500767867     -3.72912389018592     -5.85881945205611
  Al         -1.24050774742837     -1.85704437049128     -7.19287911834949
  Al         -1.68446905382052     -5.42619158005809     -3.93714268521130
  Al          0.28213066576857     -4.29894418431969     -6.15052159411532
  Al          0.66203800676331     -6.74497703513373     -4.25186018594330
  Al          2.85839532801487     -4.32817013648815     -4.24921409346227
  Al          3.25583570610454     -3.87602012531062     -7.19524890317224
  H          -4.53114193032397     -4.31109458661940     -7.18182151927086
  H          -4.50456555202362     -2.83473932817439     -4.70687428121122
  H          -1.13978236740680     -2.31409167745681     -8.73614115606593
  H          -1.38167639790975     -0.33074595434189     -6.67052125784556
  H          -2.47436602891447     -2.77151878898342     -6.40543461086209
  H          -2.97677762194160     -5.03017779700474     -5.10361930403696
  H          -2.50928229014355     -5.73571115434069     -2.59440656302441
  H          -1.12511058891736     -6.80407671947652     -4.81957815782009
  H           2.43702363307083     -5.85362132592246     -3.72492497627655
  H           0.99663854020918     -5.90422452475363     -5.69027181072746
  H           0.07013924289867     -5.84922001892362     -2.98384887123570
  H           1.15064885786004     -8.27024528231403     -4.18862868588968
  H           3.60862844798268     -4.80605103182881     -5.74426003263252
  H           4.10729455610262     -4.58194142644908     -8.36710620106272
  H           3.34520010619113     -2.32308431706016     -6.73623060054800
  H           1.60742858932819     -4.29627817227253     -7.36638344011319
  H           0.09304451515446     -2.55517127104083     -6.34307290747773
  H          -0.72326581966890     -4.17654113242033     -4.58214612591776
  H          -0.89282870522983     -4.90537594671147     -7.09528870211460
  H           1.50410209410144     -3.61972502913037     -4.92819779232974
  H           3.88237585228319     -3.43738348105372     -3.37723006839253
