80
Coordinates from ORCA-job run E -4220.485107742141
  Zr         -0.44691812550372      1.90009477428600      1.51191457154118
  Zr          0.27908996919174     -2.25367332148174     -1.39586436220436
  Zr          1.72783365289407     -1.15001646801696      1.57567537171139
  Zr         -1.86439349847238      0.82042649143097     -1.47595747359308
  Zr          1.60656495712610      0.96398505854970     -1.51051034325174
  Zr         -1.74990660920026     -1.32253316705425      1.61356808327012
  O          -1.89147328569381      0.48253743184334      0.57800360804609
  O           1.73816715771668     -0.83192092307814     -0.48058062575790
  O          -0.07851559231622     -2.09818630674858      0.64129712465052
  O          -0.05786388552523      1.76621188067761     -0.52924956383651
  O          -0.17658440242926     -0.28620965277612     -1.93664204529173
  O           0.02198389870076     -0.05696932981048      2.04576614782686
  O          -1.90581188965382      1.87833138678520      3.19913897122717
  O          -1.93109465455578      3.47363265238748      0.96695519724443
  O           1.00593806508230      2.06457344037586      3.24886111765356
  O           1.03033435915156      3.54960859570864      1.12123854119412
  O          -1.13724822386106     -3.94751137092225     -0.94137072540668
  O          -1.25532648766367     -2.41981850803721     -3.04497500722795
  O           1.79739121826516     -3.78649993066082     -0.85529319670786
  O           1.69140357077960     -2.23042490547071     -3.11738667208886
  O           1.20287466096038     -2.47446182291008      3.29303106148023
  O           2.34325074825849      0.21861914381803      3.26057797420452
  O           2.73163185581860     -3.08384786338744      1.08992432735160
  O           3.73859412146390     -0.26532047744286      1.11639098297947
  O          -3.87091362696606     -0.08981430135989     -1.06121057668845
  O          -2.89376479954807      2.73505310828227     -0.94854525851276
  O          -2.47089725331863     -0.49972288313267     -3.21357602542986
  O          -1.33030838259504      2.19047502075319     -3.15719184963234
  O           0.93423893677245      2.21225555973948     -3.22250940751747
  O           2.35082834327160      2.89712094235559     -0.61133710941367
  O           2.43036665775831     -0.09314394762321     -3.29196365228207
  O           3.79641121405190      0.75691571646916     -0.91839322464015
  O          -3.90952101147708     -1.18388860460026      0.93384701316964
  O          -2.63054215494506     -0.26425920227230      3.36359196960494
  O          -2.41838846435738     -3.32526943381568      0.83273080589682
  O          -1.06395481741691     -2.52584250600197      3.35434961733763
  C          -2.57473586588775      0.94606376436822      3.73961273028766
  C          -2.75643374867690      3.55770082651144      0.00563081298287
  C           1.85891576149729      1.27868906659324      3.76496147659682
  C           1.90403282394760      3.74121804327270      0.22555812944992
  C          -1.95750525664434     -4.16756075698308     -0.00012463992863
  C          -2.04002163976571     -1.61349061289831     -3.63838535452742
  C           2.60134564683263     -3.89231600857259      0.12058868893022
  C           2.34819039425631     -1.29883772815612     -3.67557620689660
  C           0.08988092710760     -2.83865746017805      3.78018864396720
  C           4.32639751392148      0.19391870136599      0.08349266815166
  C          -4.45154578956179     -0.59857130514159     -0.04888988308466
  C          -0.21477315517023      2.57784676807758     -3.61901787579545
  H          -2.40877846103176     -1.93707746050479     -4.65563267859359
  H           3.26986510416222     -4.80068284581643      0.12710253476184
  H           2.24507627223110      1.56480446579373      4.78712698250596
  H          -3.42850125360173      4.46401515689593     -0.00401115407446
  H           2.91846672525343     -1.57217395784585     -4.60947772661284
  H          -0.24503102655158      3.32136888693419     -4.46682198519617
  H           2.35773952474126      4.77529964716461      0.17942794702758
  H           5.45201423843916      0.10126333645378      0.07074290578099
  H          -2.33749183425398     -5.22620804657738      0.09785237754435
  H          -5.57895115609758     -0.53554682032524     -0.03810990256226
  H          -3.18342410058109      1.22161331985854      4.64829266304078
  H           0.12940791254923     -3.51026384986270      4.68538814149962
  Al         -0.14149484211056      7.12621723530519     -0.91578064427470
  Al          2.45599643612716      6.48363075518599     -2.91850420705295
  H           1.49120978303614      7.45601818524734     -3.97753448644784
  H           3.76377718799331      7.38971657925480     -2.64046227220579
  H           1.41350835080767      6.73193426292124     -1.52810883962862
  H          -0.63141603018134      8.44392909465551     -1.72297135520589
  H          -0.93898768192147      5.80594150707847     -1.73478549884004
  H           2.35107384096718      4.91043094164442     -3.22496532641768
  Al          0.29954789599387      7.11537680694819     -5.19294554302705
  H          -0.80764163203585      6.38577706326169     -4.10978137595093
  H          -0.22237326603114      8.57687923195138     -5.63434368548026
  H          -0.17466313681550      6.80714263280753      0.65670836288616
  Al         -2.14907016704272      6.26704121236559     -2.92989383864150
  H          -3.16144348862675      6.83098467757935     -1.45560503791531
  H          -2.94857326297832      4.98445406651031     -3.45889496345807
  H           0.87116372026740      5.95482792548130     -6.16093543765911
  Al         -3.84047882604881      8.22962469564792     -2.24530115691993
  H          -5.30276989047071      7.82034646985018     -2.78995023593383
  H          -2.70538131331123      7.83336667577263     -3.55287743913862
  H          -3.36452614572961      9.59143827937980     -1.53094299291197
