80
Coordinates from ORCA-job run E -4224.661726902527
  Zr         -0.15805719159906      2.05399916461254      1.39355097827191
  Zr          0.25399577891858     -2.04054166735957     -1.57297581134182
  Zr          1.62783640057833     -0.77089035021415      1.21490342616464
  Zr         -2.02551746773120      0.90696218041145     -1.69529827924685
  Zr          1.78722250171053      0.89627750290278     -1.70434049049748
  Zr         -1.72535607156197     -0.90328899004015      1.53100184464649
  O          -1.64726579418722      0.80549878092631      0.28614225993566
  O           1.92384169606533     -1.00294081165285     -0.95521767710201
  O          -0.14350976683236     -1.59390011825651      0.40939171666349
  O           1.25154615074913      1.14133189240552      0.27681279301964
  O          -0.20979554099678      0.04872421175907     -1.92772998008845
  O          -0.12518258465208      0.21613909661360      2.25334144524362
  O          -2.03328937196868      2.33048621484788      2.98204701294039
  O          -1.27745597802999      3.42993723363515      0.04135232366034
  O           1.35706727540954      2.31922566513407      2.96832116645371
  O           1.28939667684158      3.84411960848971      0.52432539995064
  O          -1.28947530321409     -3.55777842976680     -1.03968602319132
  O          -1.21667435293376     -2.16408594588775     -3.26237218143474
  O           1.48896628269366     -3.69874199161722     -0.89551749466303
  O           1.50067703533661     -2.17074942193218     -3.40735701388901
  O           1.16791706127215     -2.06523204118902      3.01048519238200
  O           2.50700941113473      0.37388445103935      2.92387775931711
  O           2.51489016041241     -2.82607365000008      0.92664678426057
  O           3.81419142853099     -0.32152428445810      0.80812079346474
  O          -3.90409528245086      0.01373733387990     -1.10890189082434
  O          -3.02656765721488      2.80660972959072     -1.21218998954914
  O          -2.57261408112013     -0.36073770711249     -3.35921577207455
  O          -1.29881775325887      2.30434559024464     -3.17934192390765
  O           0.94482120189785      2.12482127254533     -3.36963047936603
  O           2.30252485629761      3.07391873452862     -1.33457437546460
  O           2.48748543516521     -0.14484812055286     -3.51731567579665
  O           3.88044107365805      0.86634812728895     -1.11923527837835
  O          -3.91246611907544     -0.58772757740029      1.06907532903034
  O          -2.64522861257379      0.17906664187149      3.28224250182191
  O          -2.52467817948525     -2.78689077229944      0.69069736621973
  O          -1.08586321188979     -2.24516003696119      3.11580421006564
  C          -2.62582601531220      1.36939623734842      3.63100167377056
  C          -2.43045075309669      3.62168865222553     -0.44734315942413
  C           2.20538036054147      1.48781099789940      3.42437088985894
  C           2.12456002083757      3.93302824495999     -0.44757076860904
  C          -2.12774520817366     -3.68953776138331     -0.10570183832915
  C          -2.08556750965847     -1.44555573170959     -3.81499598294595
  C           2.34206775350840     -3.71332306669140      0.05208776799197
  C           2.32400387460759     -1.34405594672448     -3.89435805858347
  C           0.09842298566166     -2.45846897467991      3.53974176440043
  C           4.41297953160836      0.24240867321595     -0.14160533233241
  C          -4.47728720132289     -0.25072659495460      0.00120896792082
  C          -0.18699892477868      2.48605032559471     -3.77418895272744
  H          -2.48063307376899     -1.78222825308033     -4.79161071104519
  H           2.98828804419526     -4.60981139437009      0.11000188732838
  H           2.73191789084762      1.78790003464734      4.34994153370495
  H          -2.94693752740044      4.56539769262679     -0.19918836386984
  H           2.95243876741019     -1.69427059407876     -4.73451841138433
  H          -0.23346002633451      3.02921046903713     -4.73645412435957
  H           2.72134108550588      4.86302107223820     -0.49474776185557
  H           5.51914030640789      0.21013810665124     -0.13269867144307
  H          -2.58014016510317     -4.69231154885860      0.01931880808724
  H          -5.58122667435177     -0.18352519296152      0.00641491166418
  H          -3.15648455228172      1.66488012153446      4.55293414431405
  H           0.18345827924789     -3.05910958513739      4.46522778149226
  Al         -2.42311703075276      4.20759371912202      3.58139328400387
  Al         -3.60839358946810      5.41895415659531      5.74263431726456
  H          -3.06203922317621      6.99992291382142      6.50081169489450
  H          -5.13051421046560      5.82468621364905      5.50033611137324
  H          -2.54603392418267      5.80982554810226      4.46958193760163
  H          -2.64147938114740      4.87952951414228      2.16612078218430
  H          -1.10271056004401      3.97903580371990      4.68118530200855
  H          -2.99842643570493      4.46835106684843      6.87612898805830
  Al         -1.53444260552580      7.63933494978211      6.30770443808008
  H          -0.64200637241769      6.14891691388578      6.14151803376041
  H          -1.38805819491913      8.43713447598044      4.93521960178486
  H          -3.71017322265545      3.79988768696097      4.52966419592066
  Al          0.02765424387011      5.21949690543205      4.90267111441019
  H          -0.26934965550489      3.96817431626953      2.36014745639669
  H           1.35423074744091      4.56120970567763      5.47184227870373
  H          -0.98411794961372      8.17595409263792      7.70849822046743
  Al          0.78766357892564      5.19445293560756      1.86958677291190
  H           2.20417888883209      5.34300472119603      2.59768659543736
  H          -0.04606744272672      6.06558331333410      3.51784211355929
  H           0.07285320717814      6.32971827845228      1.00545643372816
