76
Coordinates from ORCA-job run E -3976.496767014584
  Zr         -0.07013910376392      2.11031197179019      1.67257040484407
  Zr          0.35792343276758     -1.85324623336761     -1.53416766070134
  Zr          1.72697784777099     -1.18547437255494      1.57439463049529
  Zr         -1.42620499748575      1.47062646501084     -1.44398914176553
  Zr          2.06439369038674      1.18629040993834     -1.26743619695783
  Zr         -1.76388910627108     -0.93217487168514      1.38686706979739
  O          -1.60485094983914      0.95048230581304      0.54131838938401
  O           1.90096006026393     -0.68748994618506     -0.43160085882785
  O          -0.12195635452207     -1.79931493821590      0.46808435999961
  O           0.43275264803586      2.06795656077324     -0.33733497983735
  O           0.11447628997274      0.17601629913424     -1.94447422829350
  O           0.16950237877132      0.08972456613907      2.05325082477365
  O          -1.58088658304119      2.09015731903101      3.29968781151252
  O          -1.37613039221849      3.87186135236269      1.21753398225111
  O           1.41704370728558      2.01130793013579      3.36101124541044
  O           1.49110927167553      3.75521295641570      1.42793441943177
  O          -1.11947558566654     -3.59521784399179     -1.19260759482827
  O          -1.27749250045811     -1.80222354297254     -3.05684655940315
  O           1.73274963939453     -3.56567224209962     -1.12996245899544
  O           1.77890874074582     -1.80502975408898     -3.25608089147771
  O           0.93037417440627     -2.53034016040419      3.16181870126584
  O           2.48351187896557      0.00024961961530      3.32127987199376
  O           2.47239768676655     -3.20835764813489      0.98806640961086
  O           3.91566104415757     -0.68830157164767      1.25636710962661
  O          -3.65521697033040      1.08702659102641     -1.08691487312192
  O          -2.11169794033293      3.52262265791225     -0.90236685633109
  O          -2.28178164659488      0.23484016546942     -3.10849701920405
  O          -0.59455475854509      2.77525129947892     -3.07551720397987
  O           1.66562555042328      2.63718795971661     -2.90236095332181
  O           2.90530778637862      2.91708046038334     -0.14844797775365
  O           2.84718391336561      0.19593977999151     -3.11656788868455
  O           4.14287375811897      0.67470320017996     -0.56421896978929
  O          -3.80511115620861     -0.45965177747148      0.58906777723688
  O          -2.62068313579395      0.07254878050177      3.20158828580793
  O          -2.55782584433601     -2.72721570280198      0.35137200956818
  O          -1.33279010544218     -2.33966995778596      3.06621182049658
  C          -2.40693013004175      1.21545688082667      3.70659701292451
  C          -2.00382148551520      4.20095073843447      0.16525679294450
  C           2.12414270026769      1.08656022817286      3.86941808570280
  C           2.45925079985058      3.83403985508642      0.61894274109165
  C          -2.08519427780687     -3.66270105756518     -0.38118211224842
  C          -2.00700793305424     -0.90717091348514     -3.58402540296539
  C           2.38820059944226     -3.87570873681965     -0.08789605047415
  C           2.58313278890491     -0.91259807412006     -3.66985002541713
  C          -0.25024592275657     -2.80224050771535      3.54004907329730
  C           4.57481992772026     -0.11673361458365      0.33141827544592
  C          -4.27616706001520      0.41203121442421     -0.21137421338753
  C           0.59114038877210      3.07944688276616     -3.41009416161422
  H          -2.48747239383910     -1.16752114683954     -4.57496051729208
  H           2.95771524712377     -4.84886082120400     -0.12215455133722
  H           2.49424681431818      1.26094015612504      4.92118336604701
  H          -2.52218728849943      5.20271238315789      0.17788693171787
  H           3.12205880578739     -1.13029276666613     -4.63719345875544
  H           0.70616420987389      3.82230521586970     -4.25146037222771
  H           3.00710251463320      4.82096239585586      0.57999830245708
  H           5.68450476402254     -0.32558006792658      0.31163887126773
  H          -2.60925428064037     -4.66009488971949     -0.29882541256259
  H          -5.38865290900352      0.59286029843322     -0.14038010963604
  H          -3.01617302464114      1.48645235160413      4.61657334223927
  H          -0.34800592199171     -3.53566886839721      4.39163969481668
  Al         -2.49731758979381      2.28143942238962     -6.31335356490553
  Al         -3.43928278471031     -0.75899397115164     -7.65990877812459
  H          -1.88851885796662     -1.44181812265273     -7.33547138779633
  H          -4.44569430972708     -1.46896485137532     -6.61891710760738
  H          -3.05306129316315      0.77290873644905     -6.97602853861617
  H          -3.30576124823800      2.51425745204396     -4.94778580724619
  H          -0.93350779369787      1.60831354012320     -5.95838517744434
  H          -3.62838896371249     -0.60370602667277     -9.25163038989146
  Al         -0.31457141109315     -2.07456225602408     -7.00697127435537
  H           0.18892351855400     -0.63947587139007     -6.15018494230613
  H          -0.49800454386790     -3.20402603322524     -5.87507406356083
  H          -2.32338837643503      3.31218116679416     -7.54321423700658
  Al          0.47255975938920      0.97465412899722     -6.73160832992575
  H           1.77236014532517      1.52204729640277     -5.95085375387242
  H           0.20784098350969      0.99020785171917     -8.32405704530632
  H           0.52092247633389     -2.18334871331883     -8.38035897833840
