88
Coordinates from ORCA-job run E -4707.331546282232
  Zr          0.24454386265995      1.89739970490599      0.71241146412876
  Zr         -0.54356872327221     -2.53377849959322     -1.52145057868608
  Zr          1.74036453175230     -1.51551443642445      0.75987128811274
  Zr         -2.03173808086232      0.83404593330470     -1.56943275370961
  Zr          1.19285832490231      0.24460444833005     -2.39169321904492
  Zr         -1.45222219127002     -0.86135022992905      1.66252512231568
  O          -1.54328970516775      0.75113322444856      0.42472117939438
  O           1.34381194833742     -1.38807892394049     -1.22086389766994
  O          -0.31338464400352     -2.06013281985411      0.45102483785034
  O           0.07628626624631      1.47692250328150     -1.25953721663231
  O          -0.75328855202577     -0.61447314720697     -2.21129928316598
  O           0.55106684053669      0.00522977690060      1.45822532204950
  O          -0.45374735116546      2.34360906730484      2.71827776644100
  O          -1.11689304645774      3.57581905835809      0.40301027547193
  O           2.27375314624353      1.96210950561442      1.50037484507791
  O           1.51580269936540      3.43724526448758     -0.44550746344947
  O          -1.94460414094746     -3.86339298358714     -0.44102092661342
  O          -2.46712674272973     -2.49759123527587     -2.53900317000875
  O           0.73839986427286     -4.24672411760308     -1.16672918411890
  O           0.28213504963586     -2.93801981629674     -3.48413612846101
  O           1.53518310929730     -2.32265595154069      2.77056408204907
  O           3.15760161297387     -0.08071986134467      1.58544771044608
  O           2.09589597104662     -3.64677565788611      0.49118804591288
  O           3.75395867020341     -1.61767015130062     -0.37413735976018
  O          -3.87355255876030      0.29039313328717     -0.53431838425849
  O          -2.57348809637691      2.88676290362504     -1.13349553965866
  O          -3.25020155581785     -0.43558893849336     -2.90438205655285
  O          -1.71866807830801      1.82726569803726     -3.47239995878023
  O           0.37623627788756      1.34746425816983     -4.04122537097718
  O           2.49378294722603      2.18349045238503     -2.02413739744838
  O           1.47598968048211     -1.13803604432094     -4.00391826171293
  O           3.48659608225266     -0.06045915138259     -1.95969556389779
  O          -3.59940274009672     -0.28704702304347      1.60917501276564
  O          -1.55735273167275      0.51833272949770      3.35462617314397
  O          -2.66436909364001     -2.64358028846730      1.29065564796970
  O          -0.60107974732482     -2.00934093499726      3.30910652403605
  C          -1.10201314785764      1.66329873517837      3.54423745755047
  C          -2.10588609101071      3.73348182669507     -0.34000906125809
  C           3.10184100842584      1.12272901556538      1.91494687926537
  C           2.24369286509558      3.29942434169443     -1.41798136467712
  C          -2.55133833396909     -3.70804082944047      0.63483166228268
  C          -3.17107945777606     -1.65373300005965     -3.14760624187789
  C           1.64029800395014     -4.46814697197179     -0.33163245799740
  C           1.03783566692038     -2.28779389449279     -4.23899118240418
  C           0.55463259527260     -2.42355082622189      3.53796087503112
  C           4.14179057086350     -0.99645501681693     -1.35192157347012
  C          -4.25532343112037      0.17297210837114      0.65866018464429
  C          -0.74080197831065      1.87834003020500     -4.24728686526045
  H          -3.79415017476904     -2.03728619078437     -3.96539837795087
  H           2.06984435790123     -5.47684026874632     -0.31917630903467
  H           3.86316211630522      1.48139324942497      2.61753883505462
  H          -2.61500909202784      4.70363988245807     -0.29398127569294
  H           1.34851380395036     -2.75464734938927     -5.17832160273480
  H          -0.85862239777234      2.42579567704769     -5.18853612035495
  H           2.74701408578848      4.18133457119957     -1.82935123442181
  H           5.13149635239128     -1.22419049740518     -1.76314226339397
  H          -3.05981252456098     -4.58986854782231      1.04617175132276
  H          -5.28266670389809      0.49474315831957      0.87413150169933
  H          -1.28711010308301      2.11831750595016      4.52487050599908
  H           0.72427684103402     -2.92239904024074      4.49988083378030
  Al          1.74873656501026     -0.63684180802380     -8.29352091674885
  Al          1.80217625585766      2.41613747324975     -7.32619912494015
  Al          4.21848736316812     -1.46920042246973     -6.56144878613484
  Al          4.23930419818683      1.50300543860186     -5.80728111913042
  Al          6.45060018463154      0.03438928473276     -4.21830342291324
  Al          4.37859778663071      1.66268260482830     -2.44565376337815
  Al          4.58466514274729      4.25485542871725     -4.31240795670215
  H           1.42209437126524     -0.97767361268694     -9.79621041068004
  H           0.83204946622636     -1.03725996337564     -7.06935116142465
  H           2.56743426763237      3.58114078998952     -8.05846822479553
  H           0.23891236126613      2.46586986769793     -7.05984036398570
  H           2.05283049110291      1.00834200179026     -8.23394398436290
  H           3.30581496851332     -1.15976899602439     -7.99178315277013
  H           3.57636118875895     -2.78946066976046     -5.97041635407594
  H           5.70744906541316     -1.30958917980704     -7.05538925043623
  H           5.89974920307285      0.90650924894691     -2.90750321172127
  H           5.87797934345497      1.06227218139704     -5.36509951993139
  H           5.55993091179418     -1.29388227243076     -4.21248239704017
  H           8.02539760740787     -0.01050372750408     -4.19907643868535
  H           4.91482876668912      3.22815947594315     -3.03927053151191
  H           5.74122371404757      5.32181049117937     -4.42168971603048
  H           3.05384769070235      4.65376848295449     -4.15233161985846
  H           4.71580920663201      3.15046121028503     -5.52833497849536
  H           2.54779691776573      1.96670335091433     -5.91679369270100
  H           3.66060213692411     -0.15418929184979     -5.74313934459264
  H           4.55853940331998      1.53822396940481     -7.36328567693195
  H           3.84251622277075      1.38416601323080     -4.08451030487978
  H           4.95447061100620      1.97660915810110     -0.99027911724632
