88
Coordinates from ORCA-job run_pre E -4708.501166902867
  Zr          0.29160749413144      1.92649501340304      0.90723087635520
  Zr         -0.62021842545816     -2.45215613668832     -1.60964411965728
  Zr          1.74879627227664     -1.57690141495935      0.76300182361555
  Zr         -2.07201471190464      1.01076229489132     -1.46623871434151
  Zr          1.22242920646845      0.39618063963516     -2.35074197230039
  Zr         -1.50980332087396     -0.91008810872633      1.72679968422023
  O          -1.56277611265088      0.80038865151354      0.55179054776917
  O           1.33132601417841     -1.33388095206477     -1.24663504384650
  O          -0.36439834169707     -2.07168379818639      0.42106278914926
  O           0.09506383925916      1.59504568991933     -1.12108225324898
  O          -0.79367672231029     -0.45579626356114     -2.19607137644262
  O           0.55316142736939     -0.05037116248937      1.55349090478712
  O          -0.45747838888298      2.28229041354197      2.96198344842967
  O          -1.04954740864901      3.69020277192675      0.67635299539416
  O           2.34251558797194      1.91074106248812      1.77546000769798
  O           1.65287962965555      3.48266341914575     -0.18571939592327
  O          -2.08957122671603     -3.82071432369326     -0.57446628478413
  O          -2.57160179470665     -2.33913802288133     -2.66545511199154
  O           0.65080877664112     -4.24585516720530     -1.33045435642960
  O           0.22854890544167     -2.78927458147071     -3.62247497314704
  O           1.51189971593092     -2.52683617773440      2.75614218894417
  O           3.20792871498683     -0.18340412158797      1.71149274657405
  O           2.07146341029857     -3.73938315949845      0.36055810770520
  O           3.79548386048238     -1.62805383004189     -0.37492460770404
  O          -3.97875100121207      0.50257733822204     -0.43708117441836
  O          -2.54247909265695      3.10572784024121     -0.92564138912642
  O          -3.35075369218015     -0.21164492490655     -2.86404776747787
  O          -1.75285289351510      2.11332482638282     -3.36446637670846
  O           0.37351019197692      1.62250433209678     -3.96004637848587
  O           2.56878836792869      2.31096720613791     -1.91153725758609
  O           1.42545089433409     -0.92799927810271     -4.08488963176873
  O           3.55608329623073      0.01996291445114     -1.92451690992026
  O          -3.69297270471009     -0.30010600524896      1.67304772165123
  O          -1.60683816776737      0.41173089849750      3.52160358978047
  O          -2.76213129035793     -2.70275205348471      1.29012917321800
  O          -0.64130660952506     -2.15750850966203      3.35311136812765
  C          -1.13230503842176      1.56177040714605      3.76284229964261
  C          -2.04405965072492      3.91109728561818     -0.07833757279181
  C           3.16365710622878      1.01210171702250      2.13548800320188
  C           2.38433659232052      3.38615424618199     -1.18903961537593
  C          -2.68718599747982     -3.72861728267347      0.53695713258131
  C          -3.29051174690463     -1.43041270494616     -3.19853624889284
  C           1.57649107080816     -4.52220544875560     -0.50718348967875
  C           0.97499678744482     -2.08516299148674     -4.37050359831464
  C           0.52114826932957     -2.62904743131370      3.54372699217689
  C           4.21377977567750     -0.93623617171038     -1.32093256130417
  C          -4.35739147449587      0.26646031147193      0.75912280799501
  C          -0.75094616566219      2.18947526077695     -4.13892074658130
  H          -3.95660813582392     -1.75602749117987     -4.04824724059508
  H           1.99863307684976     -5.56592310316893     -0.55010633272974
  H           3.94385366067613      1.31173541506140      2.89152236890430
  H          -2.53667884936976      4.92061681435954      0.01072612155724
  H           1.26056254376069     -2.50717855101432     -5.37338388704897
  H          -0.86406039759615      2.80817774569199     -5.07140371984870
  H           2.96124150817200      4.29399897475070     -1.51849473043142
  H           5.25823470234892     -1.11998446232901     -1.69865212303090
  H          -3.23097258977321     -4.64996882015586      0.89542976406295
  H          -5.40818681977676      0.58457885307960      1.01952741892631
  H          -1.32742657244196      1.98974249767879      4.78696941730237
  H           0.69108382744477     -3.19401409826954      4.50388149215312
  Al          2.39631776824605     -1.28262609619544     -8.56114900247155
  Al          1.48970569721310      1.85685156020767     -7.59112319372670
  Al          4.58291705086273     -1.46584241506573     -6.23754876497217
  Al          4.05628745914264      1.60215470661103     -5.95418991507782
  Al          6.34469003223204      0.03972711710211     -4.55260196923652
  Al          4.49649116252719      1.76613942229079     -2.52310505772255
  Al          4.38817543731260      4.43608036464489     -4.41972155134272
  H           2.38957163019660     -1.49063998633869    -10.16371111470110
  H           1.40461529377532     -2.06863154118311     -7.54489459705377
  H           1.97109579510224      3.09582237842878     -8.50902701478010
  H          -0.07356226964248      1.54477352132514     -7.26835200124415
  H           2.12384474446208      0.40448721577687     -8.29037092232046
  H           3.99314496222776     -1.42565224270091     -7.97562682343824
  H           4.12953744129303     -2.94873691468253     -5.78317561268019
  H           6.11621529176912     -0.93511107603175     -6.55635463754050
  H           5.96882009368343      0.94343475308640     -3.08789475953941
  H           5.79714446404286      1.33315596771516     -5.48412991166999
  H           5.20923600710411     -1.15557055856535     -4.29879303674403
  H           7.92321481692590     -0.27539178011576     -4.52023441354735
  H           4.97613533330311      3.37105936352191     -3.20839928221354
  H           5.51800620317067      5.56042909493750     -4.69606978837989
  H           2.85019408691745      4.80090292422972     -4.03471470437927
  H           4.35708052386056      3.34575938279351     -5.72205141825635
  H           2.29086764582721      1.88090694604647     -6.07509504503987
  H           3.58035496764255     -0.16054766409451     -5.86082366220540
  H           4.42472993151287      1.60247684231435     -7.54055787734502
  H           3.73074530263109      1.46936201369965     -4.13248013604436
  H           5.12924329344356      2.11623005430540     -1.05867701976333
