80
Coordinates from ORCA-job run E -4219.561588568950
  Zr         -0.20767175409268      1.78892150747627      1.42061239746907
  Zr          0.30211333739051     -2.12624771685327     -1.63518722444018
  Zr          1.64422270995267     -0.92832977241798      1.16768900727093
  Zr         -1.95277371772204      0.80933128307727     -1.70442671410870
  Zr          1.81332182470261      0.80524083505641     -1.66781248125774
  Zr         -1.69096246724565     -1.14384257570220      1.45989461828246
  O          -1.60438237547001      0.59984507796399      0.25588546170109
  O           1.93974299388268     -1.08778414985391     -0.98037858119147
  O          -0.09601075367509     -1.75619569719614      0.32896092232385
  O           1.25254058544537      0.99716090235614      0.28886956333287
  O          -0.15088606845187     -0.03016261047330     -1.94417468279862
  O          -0.09508717966996     -0.04959140239275      2.17919287874801
  O          -1.79330995830499      2.01877357486304      2.94171386379246
  O          -1.41610371189041      3.27011533421660      0.38839820760166
  O           1.26199970595334      2.16318063841355      2.92346729275807
  O           1.13779840462812      3.79056368533934      0.55011995543999
  O          -1.16225846627099     -3.70474973955497     -1.13576319912272
  O          -1.24345410417450     -2.16323239387531     -3.22217291718633
  O           1.58251050956786     -3.75417863155858     -1.03866059223036
  O           1.49676946240352     -2.14908766978986     -3.47417758775050
  O           1.20473853283651     -2.25576445588806      2.91592851995502
  O           2.45639060995425      0.27829071629633      2.88378861271156
  O           2.53762978463188     -2.95068531786394      0.81635059103773
  O           3.80259960880201     -0.43743155647246      0.80426078177924
  O          -3.76322019100364     -0.20086008810580     -1.22459414881480
  O          -2.95895939694926      2.63104375864601     -1.06468808783016
  O          -2.41724220539666     -0.29312483768360     -3.49062530298474
  O          -1.17046893166420      2.32644149508016     -2.98177585365797
  O           1.01454316824599      2.07227288739048     -3.30955134007889
  O           2.25039087411512      2.96855609211988     -1.19671948614714
  O           2.52851311090625     -0.17708829198007     -3.48956045922125
  O           3.87763711925321      0.78527604510956     -1.06314967201119
  O          -3.83877769821812     -0.86732571030088      0.89845659112340
  O          -2.61790781781639     -0.04330393283451      3.12536219981395
  O          -2.40765833940309     -3.01529183980655      0.58346438134771
  O          -1.01694579167431     -2.48242198849555      2.99838428859227
  C          -2.47107234586372      1.12771911687149      3.52204036045360
  C          -2.51346831117790      3.41537541650928     -0.19808112915785
  C           2.14020454756284      1.37282368861093      3.37284544273636
  C           2.04932315781759      3.83074083489449     -0.34566218660745
  C          -1.98877078286704     -3.88139898188549     -0.22003397855554
  C          -1.98884713966277     -1.41135273240965     -3.87314947963374
  C           2.41011699802708     -3.79173170096389     -0.08936326391076
  C           2.33483929350918     -1.33521230886648     -3.92084980286194
  C           0.15332830107317     -2.66810447234240      3.43138330795216
  C           4.40377118032197      0.15117786209338     -0.10829760510586
  C          -4.37112615032494     -0.51717883294752     -0.16127624812464
  C          -0.10262840142392      2.49916535779309     -3.63060866750818
  H          -2.31587948441388     -1.74914477688354     -4.86325598852887
  H           3.07314065901674     -4.66513591229560     -0.05976876761731
  H           2.67032231619224      1.70323943451963      4.27364208526737
  H          -3.11471762028788      4.29309749064818      0.05994618471932
  H           2.94299772730061     -1.65974252232363     -4.77333000954490
  H          -0.17945477761922      3.09173719571943     -4.54922036980587
  H           2.68761853371120      4.72401518846339     -0.35254612770458
  H           5.50012992717682      0.13478026676001     -0.08321273190007
  H          -2.41031051112059     -4.88941467542183     -0.11942882103391
  H          -5.46596509836177     -0.48525233228428     -0.19946602621305
  H          -2.98696094728713      1.41858544991518      4.44317584397359
  H           0.24161867175823     -3.26309488841695      4.34840883902806
  Al         -3.03322043339030      4.63903784630201      3.83724390150462
  Al         -3.80366681786186      6.59081907344359      6.11762705321493
  H          -2.57790147085992      7.73338946729101      6.15750193593690
  H          -5.17273957666735      7.37095704824860      6.11891777411125
  H          -3.50974665093582      6.12022804960701      4.53040468449550
  H          -2.98123614702000      5.00733147086190      2.30806830791909
  H          -1.53381542957423      4.60907056014440      4.56021934094088
  H          -3.41504307128452      5.38665251443579      7.06182438497082
  Al         -0.97639789337477      7.59286661053707      6.74514072761860
  H          -0.60790119919397      6.17597146749812      5.99818553673108
  H          -0.23769879190878      8.82214625001289      6.08466410898420
  H          -3.94235980623346      3.54279252369729      4.51486849889414
  Al         -0.09317005491818      5.49387724366209      4.39888166283958
  H          -0.06891364931031      4.55902043496238      2.75712241968235
  H           1.15802344579287      4.74225090324086      4.98815508464616
  H          -1.08837700934553      7.36338661437336      8.30503577158693
  Al          0.63322380911529      5.37984703764336      1.51868341778039
  H           2.02781870857880      6.00526635559659      1.95281567764229
  H          -0.26573498281990      6.84257440048640      3.57111944176818
  H          -0.37992189278859      6.19160223848575      0.61278523703869
