64
Coordinates from ORCA-job run E -3244.514588961963
  Zr         -0.21161529978119      2.04334823530972      1.53973499265341
  Zr          0.17139772673915     -2.03499118169272     -1.51397399720623
  Zr          1.77674403680931     -1.11424453727774      1.43682604551538
  Zr         -1.81394220263571      1.12041737173490     -1.41825535586210
  Zr          1.68488856813465      1.08377869569276     -1.58043356313502
  Zr         -1.73158583919823     -1.08026130693721      1.58791546685032
  O          -1.77527526339445      0.73780342478435      0.60432192398084
  O           1.72107016346353     -0.73175433544786     -0.59253255345704
  O          -0.15834199216430     -1.90616872057962      0.52522240159880
  O           0.11536712281818      1.90467737564285     -0.50518074749014
  O          -0.19746076199185     -0.05060113739097     -2.02812890366812
  O           0.16883516835922      0.06958514793645      2.00968722351096
  O          -1.60410624074593      2.08729961426398      3.28960969550704
  O          -1.62050153131289      3.70010373991754      1.08021477796072
  O           1.28511664491177      2.12445818373515      3.26922157667666
  O           1.35810163687307      3.59897747179097      1.11538908156344
  O          -1.43751144330996     -3.56095912338997     -1.08303944979786
  O          -1.28765732768854     -2.12385636246773     -3.25318054565067
  O           1.53272019086883     -3.72758904978189     -1.01405173174188
  O           1.64048112601454     -2.12577216682451     -3.19567331085396
  O           1.22339451546795     -2.36636693156124      3.19737660786571
  O           2.60935107379820      0.30161241426096      2.93184907501140
  O           2.54106996469632     -3.15938048105560      0.94015828862656
  O           3.89295183410171     -0.58775458155996      0.85715045323025
  O          -3.94474677954957      0.62583961273538     -0.85951423661769
  O          -2.60208608287234      3.15727758736931     -0.89409520734406
  O          -2.64301846781718     -0.33413360518577     -2.88341390351896
  O          -1.25852144376458      2.45200255432688     -3.12192475774862
  O           1.00768825998530      2.39558972718417     -3.26007676712300
  O           2.52038077184775      2.98992130281869     -0.74358960561168
  O           2.41460420429063     -0.00033763585514     -3.39274742109493
  O           3.85054525058212      0.75549295540802     -0.99108412454352
  O          -3.88280606986048     -0.79442078713497      0.93016977008001
  O          -2.50219020055749      0.00279726617532      3.37489231540622
  O          -2.54079583768166     -3.02617902370247      0.83491041437015
  O          -1.04662700111851     -2.33670057999823      3.30080835875851
  C          -2.33840858496045      1.18774206194202      3.79953838876927
  C          -2.40122890351670      3.91440511530667      0.10080598040894
  C           2.18477785849557      1.30126766466417      3.60150767526130
  C           2.14563156422551      3.81670635275968      0.14429387791412
  C          -2.18758903436778     -3.81873082614791     -0.09221515966421
  C          -2.19458847834729     -1.30509915820003     -3.58014786148689
  C           2.31200311382079     -3.93772336963394     -0.03468185237802
  C           2.34434285776513     -1.22252546005297     -3.73870457118079
  C           0.10466619215121     -2.67409221530079      3.71213007656830
  C           4.41845021899244      0.00981742961518     -0.13342706503351
  C          -4.46133841372907     -0.02152727249610      0.10297063776630
  C          -0.14288820809788      2.80506844649751     -3.61159445805249
  H          -2.66987350471459     -1.45393255286174     -4.59202756247513
  H           2.86058089561124     -4.92338272128622     -0.03106769151052
  H           2.68722852084587      1.47676865598567      4.59734619277974
  H          -2.97565091298722      4.88511649598981      0.12123890740158
  H           2.96972766897724     -1.53127218979734     -4.62393314490728
  H          -0.17329847829836      3.55508320350514     -4.45311775234051
  H           2.57965206894212      4.85658444875776      0.07542201522047
  H           5.53264823955663     -0.12764169132665     -0.25780112184345
  H          -2.60726241436168     -4.86552666827594     -0.03970685558848
  H          -5.57791029246786      0.09210138412712      0.23048648872208
  H          -2.90925624948752      1.47070736446462      4.73045162177073
  H           0.13884267056472     -3.31990957366208      4.63662695418275
  Al          0.12238175412610      0.28035669795984     -6.20753227016224
  H           1.27368343642747      1.38774380378726     -6.44728680912431
  H           0.48800055888599     -1.29449570524443     -6.18524352541791
  H          -1.41980781707312      0.73259955527738     -6.01967976527533
