# Geometry optimization for (AlH3)n cluster

%pal nprocs 24 end

%geom MaxIter 500 end

%cpcm
	epsilon 1.95778548766667
end

! PBE def2-TZVP
! RKS	# closed shell for AlH3
! D3    #  dispersion correction
! Freq 	# Frequency analysis to check the stabiltity of the structures

! NoPop # population analysis not necessary	

! DEFGRID3
! TightSCF
! TightOpt

! SmallPrint


* xyzFile 0 1 start.xyz
