64
Coordinates from ORCA-job run E -3248.281288795263
  Zr         -0.03012595121663      1.71116694119807      1.49249652737813
  Zr         -0.01094974982181     -2.31783220383484     -1.37750044678311
  Zr          1.44815390223467     -1.24829221435673      1.92432266494538
  Zr         -1.52232493936719      1.10314923507281     -1.46036161054906
  Zr          1.78721118901363      1.02464530584357     -1.23525967060044
  Zr         -1.85282123837918     -1.11167239541827      1.66966329996521
  O          -1.54547860654226      0.57554835259667      0.52955453970066
  O           1.56845931812817      0.41447440617492      0.72392919407607
  O          -0.16008716123174     -1.90313545954335      0.58959562546993
  O           0.12774136907168      2.06686942919029     -0.66401864792394
  O           0.10325320745247     -0.31794801466259     -1.62536624891268
  O          -0.19852449565166     -0.21123643999614      2.53341115898905
  O          -1.55346138542300      2.00703913480983      3.14931121212561
  O          -1.37034486619519      3.48975079251715      1.04209065975065
  O           1.28184455924120      1.88024435986439      3.33332559077601
  O           1.43761999462146      3.41318414033654      1.25435791193965
  O          -1.67190105585215     -3.64505466470598     -0.96791632643977
  O          -1.25832741384533     -2.20979373388230     -3.14890329058982
  O           1.23962425750807     -3.97131559101720     -0.68434685375337
  O           1.66331837605721     -2.35985916609595     -2.73389218582815
  O           0.73415333411792     -2.65125524032272      3.47506481761323
  O           2.30780153010068     -0.12415504155496      3.58019418009788
  O           2.24235127649094     -3.16873490743887      1.16928752327317
  O           5.62536868410002      0.12711773431555      0.55343005006640
  O          -3.63470960204926      0.46721987562296     -1.15948312209595
  O          -2.44099974318823      2.99351322911549     -0.89433781720714
  O          -2.13918647604249     -0.12968783400731     -3.23444157481508
  O          -0.84508922982132      2.26514295127644     -3.23099832620728
  O           1.40470457544002      2.15908498409939     -3.09826205556755
  O           2.69158550660050      2.91754622671635     -0.56488878693395
  O           2.57168670527352     -0.29642106416711     -2.88359893920101
  O           3.88071610964667      0.49259847092873     -0.78834123142274
  O          -3.82664528480942     -0.83344845852247      0.68339627567867
  O          -2.84560830906919      0.14409923861719      3.14214249343472
  O          -2.60667431474226     -3.13576774547981      1.02676841625495
  O          -1.51312366772709     -2.46163557113390      3.40886439624890
  C          -2.47076125233202      1.27534448055149      3.59913441358267
  C          -2.13931032594533      3.75491650212018      0.08420649369681
  C           2.00067844957810      1.05556249272128      3.95373572473607
  C           2.29890350219176      3.67906447876559      0.37764338373275
  C          -2.39768719068891     -3.89487272601675      0.05068630133655
  C          -1.89062920316370     -1.26169154836731     -3.71727054710396
  C           1.97129880587282     -4.08460761149413      0.34450839707757
  C           2.39520734181240     -1.47097041673034     -3.28290659139028
  C          -0.43102462126586     -2.85004896532489      3.93378906710210
  C           4.93823460389542      0.86819389740566     -0.22148519501927
  C          -4.28982428218039     -0.10772110515707     -0.24361696394359
  C           0.32205876987683      2.59217255515527     -3.59230048981643
  H          -2.26253890749274     -1.47157983238874     -4.73793304470262
  H           2.42048799718897     -5.07795335675385      0.52621296109345
  H           2.42584720777499      1.38383374382365      4.92149606538373
  H          -2.61935214849409      4.75257821145961      0.08546151578875
  H           2.93067716856694     -1.78489783270852     -4.19843057191090
  H           0.40578650086460      3.31565249615558     -4.42533113387583
  H           2.78203463110651      4.67394729211468      0.43224022735097
  H           5.31555050003734      1.89121326717666     -0.39977538974195
  H          -2.89833950338259     -4.88151656702031      0.05721848236462
  H          -5.38971615977492      0.02036446914003     -0.26742813888638
  H          -3.02565486170851      1.64819828140028      4.48147128459136
  H          -0.50665757308661     -3.42602729130523      4.87546888676011
  Al          4.95738527724154     -1.57855644752231      1.02339110578695
  H           5.87903651581884     -2.08664395144732      2.22799089176683
  H           3.49348932282279     -1.09521490710513      1.64147835143517
  H           4.79270737839127     -2.45784400110110     -0.30759717396729
