# Geometry optimization for (AlH3)n cluster

%pal nprocs 64 end

%cpcm
	epsilon 1.95778548766667
end

! PBE def2-TZVP
! RKS	# closed shell for AlH3
! D3    #  dispersion correction
! Freq 	# Frequency analysis to check the stabiltity of the structures

! NoPop # population analysis not necessary	

! DEFGRID3
! TightSCF

! SmallPrint


* xyzFile 0 1 run.xyz
