64
Coordinates from ORCA-job run E -3248.242682194341
  Zr         -0.13796372357580      1.81998868711962      1.63930224205530
  Zr          0.13117957343789     -2.13697035246731     -1.42003540924800
  Zr          1.47418264368127     -1.29597538705214      1.57876896298461
  Zr         -1.60201784352617      1.10603770838997     -1.36972806655553
  Zr          1.82804307943792      0.87964698239135     -1.32816492329419
  Zr         -1.90004229948434     -1.11919501439496      1.61577373682862
  O          -1.70549385811406      0.66716126937607      0.64655094590347
  O           1.82282808490971     -0.93392151679154     -0.38587288855751
  O          -0.29118396181208     -1.94178677518457      0.57309859293028
  O           0.23402350384999      1.77851036129498     -0.37807054397773
  O          -0.05662179425404     -0.15362516427834     -1.86987386298932
  O          -0.05073755766358     -0.16601605501335      2.33961251602749
  O          -1.58562251585581      1.95058883099453      3.31739640778944
  O          -1.45267531140641      3.53430152513553      1.19350956571361
  O           1.30714514200910      2.00991718840299      3.46889868135170
  O           1.36189134420551      3.47441962452833      1.26952253242040
  O          -1.34067066979541     -3.76936396211219     -0.98706713355868
  O          -1.46997820663588     -2.08240416101610     -2.93166044864185
  O           1.49412171942275     -3.78584120255035     -0.95985688396414
  O           1.47780135100232     -2.19296460717878     -3.14945718775700
  O           0.81848643664095     -2.64797878882741      3.23024804289479
  O           2.25249728152061      0.80921098150888      1.85552279959183
  O           2.34148741103482     -3.28504247469915      1.07345516012553
  O           4.47987032281367     -0.71203655009454      0.71130127684657
  O          -3.68544190494850      0.42919484443366     -1.04147496914988
  O          -2.40522941797845      3.07289621308149     -0.80369955589795
  O          -2.32539791417211      0.00176303987247     -3.19107391293920
  O          -0.91438697655287      2.44914131222320     -2.97671894172592
  O           1.33485792850195      2.22992902892214     -2.99872323367340
  O           2.66170659503317      2.73370479705685     -0.44572535624506
  O           2.51014651754166     -0.18120464150332     -3.15718071445000
  O           4.05993672314784      0.61565005096633     -1.04833884977708
  O          -3.97764283850950     -0.67013534119658      0.92198163170968
  O          -2.69298138593173     -0.02509028127950      3.34412151536986
  O          -2.70713607042614     -2.92695050869451      0.62102811003646
  O          -1.44005354534079     -2.53067609894069      3.22513528393693
  C          -2.39743225961561      1.11720813177010      3.80627478941194
  C          -2.20826026067735      3.79470042084196      0.21721500611839
  C           2.27906472811218      1.36734850491777      3.03318075331828
  C           2.23136930926147      3.61039033122857      0.36488121996600
  C          -2.26184018028651     -3.84928652284716     -0.12956248897439
  C          -2.06923925893147     -1.16723567320562     -3.57987526256307
  C           2.24238389198934     -3.99964912766609      0.04015959108786
  C           2.25093404162008     -1.31666916464679     -3.63839029038070
  C          -0.32512393453857     -2.92363105494372      3.68387055137546
  C           4.83427721932175      0.03855855431907     -0.25541874558533
  C          -4.37838717275524     -0.00370578031811     -0.07011978691611
  C           0.24206349021342      2.70888496718433     -3.41478609245822
  H          -2.41852817049539     -1.44172156292131     -4.59517335672060
  H           2.86886070210208     -4.91158715063246     -0.00010039306916
  H           3.20502822666156      1.24582742093238      3.62440678200557
  H          -2.75792469256874      4.75499720066524      0.25757053144407
  H           2.75312895339154     -1.58018747984260     -4.58975243457258
  H           0.30420639912291      3.43161909029076     -4.25144514952083
  H           2.69306595903983      4.61499140187285      0.27849046413038
  H           5.92191661576417      0.18252083688906     -0.41577543615237
  H          -2.75400995931649     -4.83738228367171     -0.02907499951632
  H          -5.46383954207838      0.21664002184246     -0.11083665253524
  H          -2.91483359317027      1.41789135567411      4.73811614091572
  H          -0.36439876868753     -3.58263922499106      4.57312760494121
  Al          4.77014552343770     -1.25637732554976      2.44707011572838
  H           5.27189615008158      0.02233478250730      3.27851421649190
  H           3.14633765634828     -1.47563186444752      2.84268291460502
  H           5.54730941209522     -2.64704769797239      2.46359300149190
