60
Coordinates from ORCA-job run E -3004.137361726665
  Zr         -0.17523576252586      2.04471913009094      1.45883818621461
  Zr          0.17523571708123     -2.04471917274355     -1.45883820235556
  Zr          1.71241004895709     -1.12167575055499      1.46831028528416
  Zr         -1.71240988625071      1.12167579573621     -1.46831035057268
  Zr          1.71705440175673      1.01976093931018     -1.53479502601927
  Zr         -1.71705430582940     -1.01976098153534      1.53479492438803
  O          -1.74767116898279      0.78241894425644      0.56610907628862
  O           1.74767119874231     -0.78241888440221     -0.56610901045181
  O          -0.13504908512417     -1.91425517485391      0.56011553278221
  O           0.13504911834821      1.91425507398300     -0.56011559346899
  O          -0.13993418293951     -0.07781974931023     -1.99418777389022
  O           0.13993425501386      0.07781966748608      1.99418786393495
  O          -1.46581352488506      2.09599446624194      3.24321928380650
  O          -1.63847867514165      3.64731780893855      1.02121717041441
  O           1.51656454917484      2.08399812133884      2.89015353774790
  O           1.19418390801215      3.76576475380046      0.96618723981606
  O          -1.19418428077796     -3.76576451949607     -0.96618739207953
  O          -1.51656464913450     -2.08399797776946     -2.89015356583189
  O           1.63847859356386     -3.64731780146486     -1.02121699831648
  O           1.46581363021069     -2.09599466267326     -3.24321928300309
  O           1.10796899073929     -2.45901387064596      3.12593460294292
  O           2.43909372194640      0.04312567301094      3.25569724817149
  O           2.60297273890442     -3.06574493006845      0.94085532319570
  O           3.71783351939177     -0.28042459770272      1.04272862024383
  O          -3.71783315057166      0.28042419502697     -1.04272855512366
  O          -2.60297266495671      3.06574481670387     -0.94085515047148
  O          -2.43909373398540     -0.04312545399991     -3.25569734760869
  O          -1.10796878243930      2.45901414519587     -3.12593480927432
  O           1.14985229119850      2.33825537000484     -3.20644027386207
  O           2.55435775269645      2.84654966109757     -0.60047339802574
  O           2.43378382646401     -0.05322805694671     -3.33365633935579
  O           3.88171285769193      0.67705040095918     -1.00822547836477
  O          -3.88171294208046     -0.67705017606708      1.00822575212456
  O          -2.43378360684308      0.05322774394430      3.33365640330746
  O          -2.55435800492144     -2.84654949441584      0.60047336169726
  O          -1.14985213631421     -2.33825554726908      3.20643997823362
  C          -2.20556454881586      1.21499005552623      3.77106123055443
  C          -2.44127438407266      3.81990354912481      0.06269193156070
  C           2.15192327250308      1.22496896819790      3.57978896940487
  C           2.09877720013199      3.81085443157450      0.09227209503057
  C          -2.09877763570572     -3.81085420237511     -0.09227233377163
  C          -2.15192357125406     -1.22496885523667     -3.57978886843674
  C           2.44127431951892     -3.81990360829008     -0.06269178162786
  C           2.20556487914732     -1.21499040012114     -3.77106113168744
  C          -0.02307237524560     -2.76197102440396      3.59738156037071
  C           4.35051864208219      0.09938949718769      0.00696973846880
  C          -4.35051854700734     -0.09938950913927     -0.00696966640334
  C           0.02307261534576      2.76197113397535     -3.59738180128545
  H          -2.50531068332901     -1.56650802488698     -4.57361555550196
  H           3.07243753136122     -4.72927131905136     -0.10231520356310
  H           2.50530983986080      1.56650796544977      4.57361596853243
  H          -3.07243767897945      4.72927121426374      0.10231538448867
  H           2.70653732836874     -1.49533296192712     -4.71832744476359
  H           0.03179264416822      3.47478849502925     -4.44515293645199
  H           2.56678404046402      4.79989212601462     -0.08662547915517
  H           5.44328894259933     -0.08789038212834      0.01063090796656
  H          -2.56678473702839     -4.79989179949667      0.08662495524209
  H          -5.44328885466296      0.08789062911929     -0.01063097943976
  H          -2.70653658010659      1.49533239356405      4.71832779686122
  H          -0.03179223553381     -3.47478827717702      4.44515280108870
