64
Coordinates from ORCA-job run E -3244.546012356696
  Zr         -0.17032895308106      2.05381517410104      1.47779988096790
  Zr          0.21243521607864     -2.03012660666769     -1.58058738836381
  Zr          1.75772004801347     -1.17296132786343      1.40020781068016
  Zr         -1.73167387849594      1.18244766983368     -1.50763899687121
  Zr          1.74294895876519      1.10460948844163     -1.60397775139964
  Zr         -1.71415255803054     -1.06385990563623      1.49999543047438
  O          -1.75231051062050      0.77051936475349      0.53426884504530
  O           1.75246713457474     -0.74714514183525     -0.63564484776835
  O          -0.14710389971766     -1.92749577316754      0.44372474163152
  O           0.14673599801147      1.91596437337352     -0.56197335355556
  O          -0.13809834754750     -0.03223533768611     -2.08126362577210
  O           0.16309442915175      0.04617446412928      1.94314401676838
  O          -1.52117549187710      2.06262539600247      3.25168388778174
  O          -1.61978951027103      3.69641005200889      1.04855348140309
  O           1.45224967255364      2.10496949492389      3.01734645351213
  O           1.28849697483987      3.71616445229894      0.98668227107600
  O          -1.27143590882337     -3.90498316899318     -0.98157713354657
  O          -1.56351714436856     -2.09547263310398     -2.90353729071569
  O           1.62962892954545     -3.68198617870604     -1.10891446595557
  O           1.57920280814299     -2.00784831892609     -3.31733697176415
  O           1.15623876964444     -2.42736470147260      3.14384049145109
  O           2.59250851706191      0.14033329087071      3.01987626096919
  O           2.52144873987039     -3.19797138159735      0.91136099878374
  O           3.89238542402354     -0.62832202968396      0.91000321792333
  O          -3.86800491340287      0.57281907396282     -1.02724029800076
  O          -2.52764203331696      3.18920894626745     -0.96423116561130
  O          -2.57297576850726     -0.08439872921548     -3.17101766322579
  O          -1.14976245150575      2.48448224209848     -3.21401796004783
  O           1.10986449461315      2.36167242104647     -3.33256226929746
  O           2.47551388366757      3.10341493835690     -0.86141320834378
  O           2.57026688492832      0.02508903596861     -3.36754323869033
  O           3.82403668647769      0.87280383351862     -0.79693418203047
  O          -3.79618734875769     -0.89575648826602      0.70834668600467
  O          -2.51782374622131      0.02800816232442      3.26332738050730
  O          -2.45960182616742     -3.12675709233300      0.79547659169405
  O          -1.10483152565187     -2.32862575357398      3.23193187013610
  C          -2.30963251494606      1.19084893535180      3.72848219045986
  C          -2.37787685446572      3.92598017652023      0.05783572237876
  C           2.23897596677241      1.24762648256823      3.52687982301587
  C           2.08271043713614      3.93051661083683      0.01968627630062
  C          -2.09730560649573     -4.02946922374969      0.00798789826091
  C          -2.28712307041880     -1.25925583758386     -3.53797426271467
  C           2.35597095233951     -3.94305796967434     -0.10285714912819
  C           2.35606690292102     -1.14089294557602     -3.82128523551751
  C           0.03007734949717     -2.71223045212768      3.65286489855871
  C           4.41641235031062      0.07091700994355     -0.00813582773425
  C          -4.39148056379637     -0.11324988628025     -0.10109959203911
  C          -0.02572650457921      2.75725957156352     -3.73687221896674
  H          -2.72631551703651     -1.61703230473003     -4.51277147855753
  H           2.90347053183889     -4.92727368152070     -0.11232511460570
  H           2.68785984283930      1.51037285617297      4.52837805689522
  H          -2.97837319761731      4.87980488179835      0.08758158892181
  H           2.90626147273521     -1.43468346899541     -4.75958206376720
  H          -0.03846294837472      3.41697832080395     -4.65082897995798
  H           2.50274728399385      4.97579386624134     -0.05779328822424
  H           5.53562730598807     -0.01301158666230     -0.12733397714008
  H          -2.53697043594994     -5.05897221749298      0.14742651232323
  H          -5.51222952450474     -0.04088745999404      0.01050266678246
  H          -2.88197037071320      1.47539353987867      4.65703868351292
  H           0.03656147569636     -3.36960431252310      4.56847634460621
  Al         -1.00792393411069     -5.46723797295934     -2.24847277954980
  H          -2.56243766564413     -5.72850283673919     -2.68957461492193
  H          -0.35631152237274     -6.62067795298305     -1.27804843103599
  H          -0.01284073160632     -4.72538826684547     -3.32070067168966
