32
Coordinates from ORCA-job run E -1952.751964436207
  Al         -0.18798454098747      2.44684018172724      0.64960560703758
  Al         -2.95187995083981      1.16092468033514      1.33816993315865
  Al         -0.17377586871651     -0.22500944480892      0.86402646892354
  Al          2.65079913393430      1.18674026511924      0.81174741327960
  Al          0.18647279818577     -0.62198401272516      4.13138366266159
  Al         -2.21946439267808      1.63127004219935      4.56224791481487
  Al          2.18773867871034      1.97774318403368      3.92993457888817
  Al          0.28793836865952      1.38620634751666      6.50485094231532
  H           0.73527244041953      1.54144528627658      8.01996180565574
  H           0.46594312702172     -0.14088666849037      5.87548960650840
  H           1.11026380881474      2.29119754962584      5.40099375271933
  H          -1.29687951036093      1.69985980337712      6.18170870131554
  H          -1.59486337275977      2.97651666928825      3.98424827024634
  H          -3.55008913931097      1.25792657498355      5.34948799197255
  H          -3.08703240202649      1.17280262472014      2.96888044157975
  H          -4.32680290258651      1.05969364302479      0.54816180246456
  H          -1.27994819082228      0.21883075744079      4.16876837375860
  H          -1.94576956889980     -0.12951371942822      1.06350648125736
  H          -0.06390688067279     -0.90552101885469      2.42947668223124
  H          -0.23957796333239     -1.46931542058191     -0.13163908917727
  H           1.61701335060470     -0.11442899850059      0.81981255228741
  H           3.08511025847346      1.36328790990794      2.38444416897703
  H           3.85608462679099      1.01865442277219     -0.20934071226172
  H           3.52002778379246      1.77497732466340      4.77521251951859
  H           0.35766138538402     -2.14378844699334      4.55037592549920
  H           1.42131329610765      0.44004910378940      3.70897336848992
  H          -0.22228542244415      4.00904483636354      0.40340945889904
  H          -2.00721283102416      2.44320933497214      0.89083828403931
  H           1.62294003187632      2.42981749875447      0.44261198880551
  H          -0.30629821292475      1.13442925360734     -0.40687919196986
  H           1.52684420763396      3.22174063404940      3.18362685649379
  H          -0.07393214602267      1.35323980183470      1.91028343960933
