32
Coordinates from ORCA-job run E -1952.744888902862
  Al         -0.16699314380398      2.45633805245396      0.69619222358074
  Al         -2.95121111354597      1.17470108983377      1.34200560574440
  Al         -0.17869388088831     -0.22615711656896      0.85847008012874
  Al          2.66530967503669      1.16787376370082      0.81800359791313
  Al          0.18994064836374     -0.62752796810557      4.12812098667167
  Al         -2.23587310832648      1.60542225475467      4.57597612184518
  Al          2.16867229655067      1.98469648782904      3.90706068703969
  Al          0.29206104357876      1.41381254542880      6.47752034914591
  H           0.78689136454394      1.61526063138128      7.97038842261176
  H           0.50031361530528     -0.11747936450914      5.86412203332386
  H           1.02617952441547      2.32526231009189      5.31902842118486
  H          -1.31532390848092      1.65858805069727      6.20188852489406
  H          -1.59389053711106      2.93742570054383      3.98829312556354
  H          -3.56856117694286      1.23004051056775      5.35406227326093
  H          -3.09303365734961      1.13825813919596      2.97292813585149
  H          -4.31833915463032      1.10603616309699      0.53852507881263
  H          -1.29150762868978      0.18746241815862      4.18643164719679
  H          -1.95210967312206     -0.11791782441803      1.05050010732510
  H          -0.08313994001743     -0.91345032581521      2.42676861461217
  H          -0.24163496942876     -1.45230673126873     -0.15342122699915
  H           1.61891521192484     -0.12354208528598      0.84128249550901
  H           3.10876241334143      1.34423532308758      2.38994089760410
  H           3.86029159946353      0.99130383254125     -0.21116104985278
  H           3.46413393046996      1.77374352078910      4.80305986715384
  H           0.38319771849870     -2.14112466128294      4.55949545045639
  H           1.40753440292641      0.44219631505407      3.67411418686386
  H          -0.19269888323382      4.01797353949185      0.45637137250223
  H          -1.99026426519314      2.45993760056376      0.93977834085084
  H           1.64167997116224      2.41732345169024      0.45874938773056
  H          -0.30326662102738      1.16174830998642     -0.38491587446855
  H           1.53430427426830      3.21799826042601      3.12105217700694
  H          -0.06792602805812      1.33786780588934      1.93374793893523
