68
Coordinates from ORCA-job run E -3488.525952121654
  Zr          0.07513903317163      1.76624435278682      1.59566783471016
  Zr          0.15397168918512     -2.06396341209111     -1.80495360456812
  Zr          1.99967300426963     -1.41852666885560      1.05620393926113
  Zr         -1.73472552891858      1.13587245047450     -1.28417840853960
  Zr          1.73160429819659      1.04889666256628     -1.69577263476194
  Zr         -1.47423281927508     -1.35539114824508      1.49215079606004
  O          -1.56108532213970      0.55333142795229      0.70373513803304
  O           1.80874916243285     -0.86056581838434     -0.91835931381524
  O           0.01094835851090     -2.08758876799332      0.25875490853076
  O           0.23912812240449      1.80258957802177     -0.46416025434870
  O          -0.23294672244212     -0.04032733239338     -2.06965938439353
  O           0.49531231386091     -0.24795768792567      1.87347508056909
  O          -1.08466887662917      1.59038341598220      3.48977459081683
  O          -1.40060827210188      3.43015700319204      1.46788280562078
  O           1.84978426282298      1.76447674233088      2.97102332045101
  O           1.45639489525486      3.53434371848654      1.10959225072273
  O          -1.25376301448067     -3.78340377512428     -1.32912559921659
  O          -1.61905761910994     -1.99248090427652     -3.18120163747134
  O           1.60866602558062     -3.74612860373871     -1.64868745367615
  O           1.32717060946189     -1.91184955276824     -3.68413530808897
  O           1.56171423550285     -2.79191319157516      2.75790732228255
  O           3.05993220674891     -0.10732543270704      2.52094581563333
  O           2.67318588683005     -3.42346890506201      0.33100828274799
  O           4.11676280224164     -0.94415157250748      0.31949812031504
  O          -3.81966552833749      0.53605871413017     -0.63987444426862
  O          -2.46357803280728      3.10309756552468     -0.51118869925182
  O          -2.73080763107822     -0.02195909143881     -2.93117333010633
  O          -1.27286968984848      2.57205076971135     -2.92675077489554
  O           0.98270708270793      2.52552931375911     -3.19141109884066
  O           2.63162976110707      2.82653275870267     -0.71041001886133
  O           2.27052034537590      0.15454486279230     -3.68076400737885
  O           3.90410334056365      0.64492667457418     -1.30955118232445
  O          -3.64433833118516     -1.00853514263574      1.03022257609963
  O          -2.06235929733209     -0.45670264952078      3.44880200729668
  O          -2.33590462498978     -3.20962063005777      0.59402240400078
  O          -0.69166217013302     -2.76813998243101      3.02950507151213
  C          -1.79833017242912      0.66320167264380      3.98233433273323
  C          -2.22815481049183      3.74425811442461      0.55764414441821
  C           2.77433862163343      0.92919660890754      3.20209679972581
  C           2.26014925022682      3.69563964109675      0.14777338985734
  C          -2.00631678883822     -4.01403876018953     -0.33697903971252
  C          -2.43403353599955     -1.08958455687829     -3.54921231906693
  C           2.42451691223924     -4.07019774361797     -0.73166425627453
  C           2.02066313035581     -0.97748708139464     -4.19347566599301
  C           0.48173429995361     -3.14228069076381      3.32957227642344
  C           4.54532736330168     -0.21857362957857     -0.62734431544122
  C          -4.27446910916768     -0.17131187073324      0.31014988755904
  C          -0.18531856360006      2.93876270842593     -3.46764294507882
  H          -2.97117177060524     -1.26848053775715     -4.52583452106296
  H           2.98753963283075     -5.03646595384218     -0.87763057804666
  H           3.42630168503603      1.13124383929871      4.10045990015530
  H          -2.81550079873935      4.69371119250217      0.71741042375891
  H           2.46046548708049     -1.17766374865458     -5.21277732890382
  H          -0.26502606203666      3.71550000753405     -4.28173311608585
  H           2.72089955872666      4.72123830113012      0.04110023469445
  H           5.63656921259011     -0.34050555644849     -0.89324506297629
  H          -2.45397414515645     -5.04894554728247     -0.27694291782586
  H          -5.37578600845308     -0.05793760636157      0.53292593178511
  H          -2.24003633904475      0.85041215189064      5.00308364094867
  H           0.57735081520037     -3.85279970384544      4.19973743249517
  Al          1.06449858255963     -0.45130510945759      6.46784564870589
  Al          3.17818165811597     -1.98141232324406      6.04044315315055
  H           1.97104271419946     -1.09642066343825      5.10553850814451
  H           4.56194093188749     -1.16226102468509      5.97419549093535
  H           2.24320043831355     -1.36089869613145      7.42839416530644
  H          -0.36301567971973     -1.19362517156589      6.51664026888241
  H           1.38334394305272      1.11880090977892      6.62902755580699
  H           2.90041779098229     -3.56532316798479      5.95544189905539
