8
Coordinates from ORCA-job run E -487.959231736135
  Al          0.00007372920135     -0.00231633795213      2.36088992964717
  Al         -0.00037518675135     -0.00189533522938     -0.29165700237862
  H           1.18132186780278     -0.04068142597411      1.03447574999506
  H          -0.06550982027403     -1.45793997450352     -0.97947286639150
  H          -1.18040066344634      0.06490704918950      1.03475168927513
  H           0.06428266653886      1.43606352558889      3.08468659239028
  H          -0.06458277220960     -1.45868188633429      3.04788419969599
  H           0.06395017913833      1.43685438521503     -1.01474829223351
