20
Coordinates from ORCA-job run E -1220.469644166839
  Al     -0.000000      0.000000      3.701180
  H      -0.663510      1.048610      2.504780
  H      -1.585980     -0.649470      3.938700
  H       0.616330     -1.120890      4.883330
  Al      1.277540      1.820090      4.652480
  H       1.586410      0.648150      3.460670
  H       1.268690      3.300450      4.055150
  H      -0.293640      1.219030      4.908960
  Al     -0.076980     -1.476510      0.847410
  H      -1.575360     -2.025550      0.803530
  H       2.217810      1.657360      5.935040
  H       0.000000     -0.000000      0.000000
  Al     -0.954420     -1.741940      5.077920
  H      -1.059360     -3.257560      4.584460
  H      -1.520900     -1.518220      6.553970
  H       0.340250     -1.153190      2.468150
  Al     -0.436850      1.415790      0.848350
  H      -1.772340      2.031210      0.227460
  H       0.753680      2.474210      0.742290
  H       0.923810     -2.551540      0.221510
20
Coordinates from ORCA-job run E -1220.475910868175
  Al     -0.000542     -0.000310      3.693676
  H      -0.669698      1.051563      2.496878
  H      -1.583713     -0.655054      3.938666
  H       0.608742     -1.123367      4.878224
  Al      1.285528      1.833016      4.652911
  H       1.585358      0.654051      3.459964
  H       1.259471      3.304507      4.042029
  H      -0.285884      1.220921      4.902036
  Al     -0.082166     -1.485046      0.851274
  H      -1.589381     -2.006431      0.823732
  H       2.218326      1.645112      5.933642
  H       0.004071     -0.000283      0.016639
  Al     -0.960354     -1.755101      5.080751
  H      -1.055235     -3.261612      4.566749
  H      -1.522893     -1.506177      6.551436
  H       0.344609     -1.157714      2.461409
  Al     -0.437944      1.425557      0.849679
  H      -1.784466      2.013880      0.232326
  H       0.772038      2.460069      0.756170
  H       0.939315     -2.537553      0.227149
20
Coordinates from ORCA-job run E -1220.484544461004
  Al     -0.001248     -0.000790      3.682099
  H      -0.672403      1.060119      2.484680
  H      -1.580155     -0.666237      3.938862
  H       0.597339     -1.128693      4.870230
  Al      1.299038      1.861031      4.657241
  H       1.584157      0.665630      3.461204
  H       1.241766      3.314333      4.018296
  H      -0.276371      1.225461      4.890580
  Al     -0.087220     -1.497741      0.854061
  H      -1.605577     -1.978058      0.854068
  H       2.215478      1.627405      5.935765
  H       0.001748     -0.002373      0.038856
  Al     -0.971384     -1.782708      5.088672
  H      -1.045059     -3.271576      4.535812
  H      -1.522844     -1.487832      6.550151
  H       0.345960     -1.168144      2.452790
  Al     -0.437354      1.440077      0.847574
  H      -1.797795      1.999409      0.244476
  H       0.801290      2.436502      0.773830
  H       0.955813     -2.525785      0.236093
20
Coordinates from ORCA-job run E -1220.491173608732
  Al     -0.001881     -0.001440      3.670381
  H      -0.673171      1.068313      2.473770
  H      -1.576645     -0.679315      3.939725
  H       0.585539     -1.135592      4.862644
  Al      1.313609      1.893205      4.663234
  H       1.583291      0.678795      3.463480
  H       1.222688      3.325939      3.993029
  H      -0.267048      1.231445      4.878837
  Al     -0.092098     -1.510329      0.855651
  H      -1.620203     -1.949919      0.882855
  H       2.211903      1.610770      5.939171
  H      -0.002207     -0.004519      0.061284
  Al     -0.983453     -1.814285      5.098812
  H      -1.033534     -3.283366      4.503815
  H      -1.522285     -1.470110      6.549833
  H       0.346769     -1.178673      2.446063
  Al     -0.435473      1.454626      0.843890
  H      -1.808271      1.989464      0.255930
  H       0.829742      2.413721      0.789374
  H       0.967907     -2.518701      0.243563
20
Coordinates from ORCA-job run E -1220.495560832464
  Al     -0.002504     -0.002241      3.658519
  H      -0.673743      1.074934      2.465277
  H      -1.573101     -0.693458      3.941743
  H       0.573010     -1.143574      4.855854
  Al      1.327626      1.925044      4.669153
  H       1.582588      0.692867      3.466567
  H       1.203700      3.337343      3.968098
  H      -0.256755      1.238370      4.867316
  Al     -0.098380     -1.523184      0.857267
  H      -1.635559     -1.922293      0.909473
  H       2.208547      1.595488      5.942258
  H      -0.006522     -0.006206      0.085106
  Al     -0.994946     -1.845660      5.109023
  H      -1.022174     -3.294901      4.472575
  H      -1.522075     -1.453813      6.549245
  H       0.348290     -1.188237      2.441929
  Al     -0.432870      1.469767      0.840026
  H      -1.818071      1.979662      0.264827
  H       0.858491      2.391269      0.802271
  H       0.979627     -2.511149      0.248814
20
Coordinates from ORCA-job run E -1220.498035381054
  Al     -0.003136     -0.003148      3.646609
  H      -0.675631      1.079229      2.459630
  H      -1.569544     -0.707834      3.945096
  H       0.559822     -1.152166      4.850207
  Al      1.339733      1.953037      4.673833
  H       1.582028      0.707202      3.470262
  H       1.186142      3.347123      3.945162
  H      -0.245006      1.245784      4.856541
  Al     -0.107058     -1.536388      0.859828
  H      -1.652671     -1.895922      0.933332
  H       2.206138      1.582263      5.944118
  H      -0.010417     -0.007257      0.110873
  Al     -1.004557     -1.873508      5.117676
  H      -1.012267     -3.304698      4.443668
  H      -1.522925     -1.439977      6.547774
  H       0.351805     -1.196119      2.440427
  Al     -0.429867      1.485634      0.837055
  H      -1.827782      1.967124      0.270084
  H       0.887625      2.368754      0.811788
  H       0.992750     -2.499103      0.251378
20
Coordinates from ORCA-job run E -1220.499184783188
  Al     -0.003682     -0.004060      3.635553
  H      -0.681524      1.079129      2.456896
  H      -1.566331     -0.720591      3.949116
  H       0.547386     -1.160192      4.846393
  Al      1.348164      1.972725      4.676091
  H       1.581713      0.720143      3.473613
  H       1.172383      3.353962      3.927256
  H      -0.232667      1.252630      4.847734
  Al     -0.118677     -1.548902      0.864348
  H      -1.671335     -1.873457      0.953333
  H       2.206002      1.573068      5.943928
  H      -0.011572     -0.007622      0.137447
  Al     -1.010660     -1.893496      5.122934
  H      -1.005563     -3.311370      4.420384
  H      -1.525981     -1.430839      6.545212
  H       0.360323     -1.200107      2.440611
  Al     -0.426699      1.500812      0.836487
  H      -1.835713      1.950490      0.269703
  H       0.914246      2.348409      0.817753
  H       1.005367     -2.480701      0.250548
20
Coordinates from ORCA-job run E -1220.499704998887
  Al     -0.003888     -0.004666      3.628515
  H      -0.690454      1.074388      2.456932
  H      -1.564534     -0.727690      3.951739
  H       0.539849     -1.164861      4.845491
  Al      1.350390      1.978767      4.675383
  H       1.581903      0.727713      3.475250
  H       1.166109      3.356574      3.919442
  H      -0.224160      1.256576      4.843431
  Al     -0.129610     -1.556935      0.869858
  H      -1.686052     -1.861802      0.965669
  H       2.208264      1.571211      5.942288
  H      -0.008941     -0.007594      0.156825
  Al     -1.011617     -1.900067      5.123058
  H      -1.003379     -3.313680      4.409046
  H      -1.530626     -1.429631      6.542652
  H       0.372798     -1.198759      2.441438
  Al     -0.424037      1.510477      0.838471
  H      -1.838327      1.936108      0.263797
  H       0.930333      2.337316      0.819679
  H       1.011159     -2.463415      0.246376
20
Coordinates from ORCA-job run E -1220.500178787563
  Al     -0.003828     -0.005188      3.622162
  H      -0.704104      1.065252      2.458443
  H      -1.563459     -0.732021      3.953255
  H       0.533868     -1.167938      4.846443
  Al      1.348937      1.976649      4.672417
  H       1.582755      0.732989      3.475890
  H       1.163906      3.356767      3.916639
  H      -0.216594      1.259243      4.840964
  Al     -0.142180     -1.563907      0.877945
  H      -1.700723     -1.856026      0.977708
  H       2.212798      1.574642      5.939340
  H      -0.003162     -0.007520      0.176744
  Al     -1.009603     -1.898660      5.119252
  H      -1.003728     -3.313362      4.402891
  H      -1.538085     -1.434391      6.539236
  H       0.392239     -1.193627      2.442741
  Al     -0.421111      1.518733      0.842669
  H      -1.837323      1.920770      0.252824
  H       0.942341      2.331167      0.819719
  H       1.012237     -2.443543      0.238055
20
Coordinates from ORCA-job run E -1220.500470118968
  Al     -0.003319     -0.005474      3.617651
  H      -0.718575      1.054768      2.459679
  H      -1.563133     -0.732337      3.952045
  H       0.531366     -1.168024      4.848496
  Al      1.344584      1.968827      4.668527
  H       1.584065      0.734577      3.475193
  H       1.165366      3.354717      3.918694
  H      -0.213041      1.259553      4.840195
  Al     -0.152270     -1.568063      0.886859
  H      -1.710401     -1.856997      0.990301
  H       2.217141      1.582821      5.936033
  H       0.003753     -0.007807      0.192568
  Al     -1.005833     -1.891299      5.112680
  H      -1.005052     -3.310653      4.402003
  H      -1.546135     -1.444173      6.535053
  H       0.414199     -1.186851      2.443484
  Al     -0.418203      1.523506      0.847353
  H      -1.832037      1.911241      0.240983
  H       0.947303      2.331938      0.819863
  H       1.005401     -2.430238      0.227681
20
Coordinates from ORCA-job run E -1220.500587332259
  Al     -0.002530     -0.005525      3.615382
  H      -0.727085      1.048704      2.458894
  H      -1.562917     -0.730544      3.948726
  H       0.532220     -1.165910      4.849715
  Al      1.340893      1.963521      4.666434
  H       1.585065      0.733764      3.473976
  H       1.166731      3.352738      3.921287
  H      -0.214313      1.258143      4.839741
  Al     -0.156296     -1.569137      0.892784
  H      -1.712643     -1.859877      1.002274
  H       2.218164      1.590343      5.934360
  H       0.007720     -0.008509      0.200328
  Al     -1.003298     -1.885868      5.107679
  H      -1.004521     -3.308111      4.402339
  H      -1.550862     -1.452662      6.531535
  H       0.429004     -1.183153      2.443080
  Al     -0.415795      1.524651      0.849584
  H      -1.825783      1.911577      0.234766
  H       0.947182      2.335896      0.822124
  H       0.994243     -2.430011      0.220330
20
Coordinates from ORCA-job run E -1220.500701025723
  Al     -0.001179     -0.005551      3.612199
  H      -0.735750      1.042970      2.455813
  H      -1.562074     -0.728274      3.942768
  H       0.534514     -1.162125      4.850283
  Al      1.336919      1.960386      4.665123
  H       1.586184      0.732687      3.472282
  H       1.166405      3.351032      3.923098
  H      -0.218311      1.255681      4.838037
  Al     -0.159391     -1.569994      0.899836
  H      -1.713101     -1.862060      1.022395
  H       2.216945      1.599540      5.933510
  H       0.010895     -0.009983      0.208936
  Al     -1.001106     -1.882147      5.102213
  H      -1.000998     -3.305564      4.400397
  H      -1.555626     -1.462843      6.526674
  H       0.446564     -1.180515      2.441602
  Al     -0.411968      1.525471      0.850819
  H      -1.816671      1.917564      0.229648
  H       0.947121      2.340974      0.827862
  H       0.975807     -2.437217      0.211847
20
Coordinates from ORCA-job run E -1220.500825316409
  Al      0.000942     -0.005623      3.606724
  H      -0.745724      1.036634      2.449619
  H      -1.559965     -0.726738      3.933649
  H       0.537764     -1.156668      4.849791
  Al      1.332582      1.961011      4.664885
  H       1.587405      0.732646      3.470277
  H       1.162475      3.350422      3.922937
  H      -0.224765      1.252416      4.833981
  Al     -0.162990     -1.571612      0.909236
  H      -1.713622     -1.860996      1.055538
  H       2.212802      1.610496      5.934076
  H       0.013190     -0.012633      0.220976
  Al     -0.999196     -1.881665      5.096055
  H      -0.992580     -3.303602      4.393615
  H      -1.560974     -1.475038      6.519851
  H       0.469697     -1.178818      2.438660
  Al     -0.405693      1.526937      0.850871
  H      -1.803813      1.929416      0.224771
  H       0.949903      2.345565      0.838368
  H       0.947740     -2.452119      0.201457
20
Coordinates from ORCA-job run E -1220.500909541546
  Al      0.003018     -0.005737      3.600694
  H      -0.753102      1.031700      2.442747
  H      -1.556983     -0.727817      3.925407
  H       0.540416     -1.151912      4.848296
  Al      1.329239      1.965908      4.666083
  H       1.588018      0.734858      3.469131
  H       1.155078      3.351951      3.920546
  H      -0.230689      1.250026      4.828859
  Al     -0.166746     -1.573705      0.917379
  H      -1.715778     -1.854663      1.089582
  H       2.206872      1.618263      5.936547
  H       0.013655     -0.015563      0.231973
  Al     -0.997807     -1.885403      5.091782
  H      -0.981249     -3.303643      4.383733
  H      -1.564508     -1.483955      6.514034
  H       0.489544     -1.178688      2.435394
  Al     -0.398992      1.528676      0.849498
  H      -1.792115      1.942224      0.221047
  H       0.956609      2.346034      0.849520
  H       0.920700     -2.468525      0.193087
20
Coordinates from ORCA-job run E -1220.500944636739
  Al      0.004206     -0.005805      3.596998
  H      -0.755755      1.029168      2.438630
  H      -1.554431     -0.730821      3.921631
  H       0.541918     -1.149459      4.847011
  Al      1.326968      1.971032      4.667734
  H       1.587774      0.738247      3.469302
  H       1.147898      3.354554      3.918477
  H      -0.233914      1.249334      4.825451
  Al     -0.169868     -1.575037      0.921211
  H      -1.719502     -1.846113      1.109612
  H       2.201756      1.620812      5.939623
  H       0.013183     -0.017532      0.236903
  Al     -0.996266     -1.889818      5.090347
  H      -0.971840     -3.305150      4.376489
  H      -1.564891     -1.487232      6.511568
  H       0.498951     -1.179487      2.433480
  Al     -0.394504      1.529474      0.847733
  H      -1.785368      1.950497      0.218209
  H       0.964081      2.342674      0.856095
  H       0.904786     -2.479309      0.188836
20
Coordinates from ORCA-job run E -1220.500964237003
  Al      0.004937     -0.005798      3.595012
  H      -0.756323      1.027266      2.436324
  H      -1.552211     -0.734446      3.920255
  H       0.543396     -1.147892      4.846281
  Al      1.324303      1.974679      4.669294
  H       1.587094      0.741923      3.470112
  H       1.141543      3.357269      3.917952
  H      -0.236140      1.249331      4.823511
  Al     -0.172975     -1.575497      0.922922
  H      -1.724183     -1.836872      1.121215
  H       2.197025      1.621503      5.942687
  H       0.012989     -0.019006      0.237777
  Al     -0.993734     -1.893021      5.089807
  H      -0.963678     -3.306950      4.372117
  H      -1.563467     -1.488583      6.510700
  H       0.503234     -1.180192      2.432462
  Al     -0.391170      1.529190      0.846080
  H      -1.780326      1.956369      0.214847
  H       0.971136      2.337823      0.859704
  H       0.893728     -2.487063      0.186282
20
Coordinates from ORCA-job run E -1220.500987685824
  Al      0.005936     -0.005701      3.592977
  H      -0.756578      1.023940      2.433505
  H      -1.548821     -0.740211      3.919029
  H       0.546402     -1.145418      4.845664
  Al      1.318886      1.978577      4.671533
  H       1.585784      0.747681      3.471639
  H       1.132255      3.361220      3.919104
  H      -0.239865      1.249386      4.821457
  Al     -0.178324     -1.575357      0.924974
  H      -1.732016     -1.821681      1.135438
  H       2.189257      1.622586      5.947246
  H       0.013476     -0.021261      0.236427
  Al     -0.988316     -1.896370      5.088764
  H      -0.951077     -3.309491      4.367638
  H      -1.560007     -1.490973      6.509695
  H       0.508101     -1.180698      2.431267
  Al     -0.386204      1.527646      0.843697
  H      -1.771835      1.964770      0.208475
  H       0.981509      2.329606      0.863821
  H       0.876616     -2.498220      0.182988
20
Coordinates from ORCA-job run E -1220.501015576994
  Al      0.007336     -0.005467      3.590781
  H      -0.756904      1.018628      2.429563
  H      -1.543979     -0.748149      3.917449
  H       0.551704     -1.141489      4.845160
  Al      1.309664      1.982375      4.674513
  H       1.583747      0.755663      3.473838
  H       1.119683      3.366235      3.922785
  H      -0.246101      1.249161      4.819159
  Al     -0.186668     -1.574311      0.928045
  H      -1.743092     -1.799084      1.153867
  H       2.177375      1.624870      5.953210
  H       0.015137     -0.024673      0.232457
  Al     -0.979053     -1.899520      5.086642
  H      -0.932854     -3.312476      4.363241
  H      -1.553930     -1.495665      6.507920
  H       0.514475     -1.180629      2.429625
  Al     -0.378951      1.524452      0.840516
  H      -1.758021      1.976340      0.198428
  H       0.995353      2.317549      0.868985
  H       0.850258     -2.513780      0.179157
20
Coordinates from ORCA-job run E -1220.501044075238
  Al      0.008933     -0.005094      3.588724
  H      -0.757296      1.012169      2.424555
  H      -1.538328     -0.756842      3.915517
  H       0.558946     -1.136504      4.844714
  Al      1.297617      1.985418      4.677828
  H       1.581213      0.764537      3.476294
  H       1.105829      3.371276      3.928870
  H      -0.254574      1.248439      4.816822
  Al     -0.197156     -1.572263      0.932022
  H      -1.755423     -1.771595      1.173928
  H       2.162544      1.628265      5.959352
  H       0.017997     -0.028949      0.226073
  Al     -0.966912     -1.901974      5.083576
  H      -0.911422     -3.315165      4.359753
  H      -1.545489     -1.502599      6.505261
  H       0.521255     -1.179840      2.427586
  Al     -0.370197      1.519971      0.836982
  H      -1.740070      1.988937      0.186390
  H       1.010385      2.303127      0.874733
  H       0.817326     -2.531286      0.176360
20
Coordinates from ORCA-job run E -1220.501067434607
  Al      0.010258     -0.004689      3.587192
  H      -0.757642      1.006669      2.419390
  H      -1.533399     -0.763780      3.913713
  H       0.566145     -1.131972      4.844197
  Al      1.286241      1.987451      4.680686
  H       1.578853      0.771815      3.478302
  H       1.094504      3.374973      3.935374
  H      -0.263112      1.247404      4.814765
  Al     -0.207153     -1.569788      0.935987
  H      -1.765660     -1.746172      1.190238
  H       2.148619      1.631791      5.963831
  H       0.021299     -0.032992      0.219186
  Al     -0.955316     -1.903689      5.080579
  H      -0.892694     -3.316860      4.357680
  H      -1.536626     -1.510018      6.502367
  H       0.526265     -1.178636      2.425594
  Al     -0.362125      1.515747      0.833979
  H      -1.722998      1.998391      0.176188
  H       1.022746      2.289988      0.879871
  H       0.786974     -2.545603      0.176220
20
Coordinates from ORCA-job run E -1220.501084072526
  Al      0.011059     -0.004369      3.586178
  H      -0.757910      1.003347      2.414864
  H      -1.530036     -0.767914      3.912494
  H       0.571641     -1.129036      4.843490
  Al      1.278100      1.989077      4.682737
  H       1.577113      0.776387      3.479581
  H       1.087379      3.377158      3.940243
  H      -0.269780      1.246511      4.813010
  Al     -0.214905     -1.567610      0.939170
  H      -1.772600     -1.727178      1.200389
  H       2.138320      1.634596      5.966189
  H       0.024247     -0.035986      0.213651
  Al     -0.946776     -1.905293      5.078560
  H      -0.880094     -3.317731      4.356441
  H      -1.529152     -1.516257      6.500083
  H       0.528648     -1.177517      2.424010
  Al     -0.356051      1.513029      0.831906
  H      -1.710716      2.002800      0.169911
  H       1.031095      2.280355      0.883829
  H       0.765595     -2.554337      0.178605
20
Coordinates from ORCA-job run E -1220.501094732578
  Al      0.011397     -0.004191      3.585438
  H      -0.758201      1.001981      2.411369
  H      -1.528162     -0.769700      3.911986
  H       0.574969     -1.127813      4.842605
  Al      1.273626      1.990834      4.684049
  H       1.576058      0.778622      3.480257
  H       1.083788      3.378507      3.942683
  H      -0.273912      1.246048      4.811461
  Al     -0.220124     -1.566125      0.941358
  H      -1.776978     -1.715083      1.205436
  H       2.132158      1.636426      5.967202
  H       0.026469     -0.037769      0.210245
  Al     -0.941753     -1.907212      5.077722
  H      -0.873479     -3.318351      4.355190
  H      -1.523932     -1.520675      6.498908
  H       0.529140     -1.176743      2.422907
  Al     -0.352030      1.512044      0.830649
  H      -1.704054      2.003051      0.167129
  H       1.036310      2.274528      0.886665
  H       0.753889     -2.558351      0.182082
20
Coordinates from ORCA-job run E -1220.501101173841
  Al      0.011496     -0.004120      3.584821
  H      -0.758534      1.001524      2.408866
  H      -1.527144     -0.770276      3.912057
  H       0.576851     -1.127570      4.841688
  Al      1.271469      1.992682      4.684913
  H       1.575458      0.779600      3.480654
  H       1.081984      3.379751      3.943432
  H      -0.276213      1.245956      4.810105
  Al     -0.223605     -1.565174      0.942727
  H      -1.780250     -1.707582      1.207778
  H       2.128790      1.637548      5.967977
  H       0.028115     -0.038720      0.208279
  Al     -0.938982     -1.909254      5.077658
  H      -0.870404     -3.319116      4.353683
  H      -1.520549     -1.523672      6.498818
  H       0.528907     -1.176284      2.422143
  Al     -0.349304      1.512035      0.829828
  H      -1.701129      2.001436      0.165964
  H       1.040003      2.271428      0.888692
  H       0.748222     -2.560161      0.185256
20
Coordinates from ORCA-job run E -1220.501105250706
  Al      0.011456     -0.004117      3.584499
  H      -0.758774      1.001451      2.407428
  H      -1.526729     -0.770110      3.912664
  H       0.577877     -1.127808      4.840951
  Al      1.270689      1.994098      4.685415
  H       1.575184      0.779737      3.480934
  H       1.081379      3.380923      3.943390
  H      -0.277278      1.246105      4.809155
  Al     -0.225649     -1.564437      0.943242
  H      -1.782770     -1.703638      1.207933
  H       2.127353      1.638204      5.968813
  H       0.029368     -0.039041      0.206849
  Al     -0.937590     -1.910836      5.078063
  H      -0.869660     -3.319935      4.352475
  H      -1.518510     -1.525584      6.499649
  H       0.528189     -1.176106      2.421732
  Al     -0.347601      1.512292      0.829300
  H      -1.700552      1.999184      0.165440
  H       1.042374      2.270553      0.889830
  H       0.746424     -2.560906      0.187579
20
Coordinates from ORCA-job run E -1220.501107946079
  Al      0.011460     -0.004126      3.584187
  H      -0.759175      1.000873      2.406271
  H      -1.526294     -0.770003      3.913416
  H       0.579034     -1.127802      4.840341
  Al      1.269689      1.995140      4.685865
  H       1.574960      0.779913      3.481294
  H       1.080591      3.382250      3.943567
  H      -0.278362      1.246251      4.808321
  Al     -0.227587     -1.563580      0.943627
  H      -1.785505     -1.700011      1.208403
  H       2.125933      1.639046      5.970064
  H       0.030766     -0.039331      0.205266
  Al     -0.936033     -1.911971      5.078379
  H      -0.868733     -3.320775      4.351400
  H      -1.516695     -1.527642      6.500753
  H       0.528042     -1.175935      2.421323
  Al     -0.345823      1.512224      0.828750
  H      -1.699649      1.997600      0.164200
  H       1.044698      2.270324      0.890864
  H       0.743862     -2.562414      0.189050
20
Coordinates from ORCA-job run E -1220.501109480434
  Al      0.011434     -0.004156      3.584070
  H      -0.759535      1.000165      2.405730
  H      -1.526085     -0.769852      3.914237
  H       0.579915     -1.127693      4.840032
  Al      1.268882      1.995475      4.686087
  H       1.574851      0.779930      3.481618
  H       1.080178      3.383120      3.943907
  H      -0.279097      1.246403      4.807870
  Al     -0.228751     -1.562765      0.943656
  H      -1.787333     -1.697865      1.208314
  H       2.125000      1.639807      5.971045
  H       0.031976     -0.039433      0.203851
  Al     -0.934868     -1.912335      5.078626
  H      -0.868199     -3.321245      4.351010
  H      -1.515462     -1.529257      6.501784
  H       0.528053     -1.175895      2.421112
  Al     -0.344606      1.511869      0.828398
  H      -1.698767      1.996700      0.162912
  H       1.045878      2.270847      0.891448
  H       0.741717     -2.563790      0.189634
20
Coordinates from ORCA-job run E -1220.501110314013
  Al      0.011363     -0.004211      3.584001
  H      -0.759900      0.999489      2.405550
  H      -1.526061     -0.769733      3.914996
  H       0.580406     -1.127593      4.839913
  Al      1.268359      1.995436      4.686122
  H       1.574814      0.779874      3.481867
  H       1.080065      3.383478      3.944177
  H      -0.279479      1.246576      4.807626
  Al     -0.229299     -1.562115      0.943530
  H      -1.788194     -1.696743      1.208006
  H       2.124460      1.640422      5.971540
  H       0.032963     -0.039403      0.202940
  Al     -0.934177     -1.912298      5.078822
  H      -0.867935     -3.321343      4.351021
  H      -1.514738     -1.530423      6.502520
  H       0.528206     -1.175979      2.421042
  Al     -0.343889      1.511463      0.828245
  H      -1.697918      1.996213      0.161873
  H       1.046099      2.271677      0.891844
  H       0.740034     -2.564758      0.189707
20
Coordinates from ORCA-job run E -1220.501110903444
  Al      0.011221     -0.004307      3.583892
  H      -0.760306      0.998866      2.405480
  H      -1.526157     -0.769657      3.915846
  H       0.580618     -1.127591      4.839833
  Al      1.268058      1.995359      4.686052
  H       1.574787      0.779787      3.482085
  H       1.080114      3.383552      3.944230
  H      -0.279633      1.246833      4.807381
  Al     -0.229556     -1.561527      0.943311
  H      -1.788535     -1.695869      1.207480
  H       2.124112      1.640927      5.971688
  H       0.033967     -0.039272      0.202373
  Al     -0.933785     -1.912233      5.079104
  H      -0.867811     -3.321250      4.351141
  H      -1.514187     -1.531387      6.503157
  H       0.528318     -1.176224      2.421061
  Al     -0.343399      1.511100      0.828201
  H      -1.697107      1.995687      0.161023
  H       1.045806      2.272655      0.892319
  H       0.738653     -2.565419      0.189681
