8
Coordinates from ORCA-job run E -488.081457782675
  Al      0.000000     -0.000000      2.068600
  Al      0.000000      0.000000      0.000000
  H       1.358660     -0.045440      1.033860
  H      -0.059090     -1.315350     -0.908130
  H      -1.357130      0.075740      1.034880
  H       0.057700      1.288210      3.016230
  H      -0.058610     -1.316130      2.977310
  H       0.057230      1.289280     -0.945940
8
Coordinates from ORCA-job run E -488.090672395306
  Al      0.000010     -0.000329      2.082118
  Al     -0.000050     -0.000297     -0.013420
  H       1.340435     -0.044037      1.033997
  H      -0.059772     -1.330110     -0.899320
  H      -1.338904      0.075566      1.034830
  H       0.058337      1.302608      3.008101
  H      -0.059182     -1.330758      2.968310
  H       0.057886      1.303667     -0.937806
8
Coordinates from ORCA-job run E -488.114148773121
  Al      0.000034     -0.000888      2.127994
  Al     -0.000143     -0.000775     -0.059100
  H       1.298234     -0.042385      1.034255
  H      -0.061232     -1.361087     -0.894169
  H      -1.296814      0.073615      1.034743
  H       0.059667      1.334146      3.003169
  H      -0.060338     -1.361495      2.962794
  H       0.059352      1.335178     -0.932877
8
Coordinates from ORCA-job run E -488.126993423207
  Al      0.000042     -0.001165      2.163720
  Al     -0.000182     -0.001006     -0.094748
  H       1.274468     -0.041693      1.034345
  H      -0.061899     -1.375380     -0.904128
  H      -1.273113      0.072249      1.034719
  H       0.060298      1.349018      3.012849
  H      -0.060892     -1.375738      2.972629
  H       0.060038      1.350025     -0.942576
8
Coordinates from ORCA-job run E -488.140699104345
  Al      0.000049     -0.001544      2.218745
  Al     -0.000228     -0.001324     -0.149688
  H       1.239452     -0.040740      1.034422
  H      -0.062740     -1.393681     -0.923851
  H      -1.238182      0.070124      1.034704
  H       0.061132      1.368295      3.031909
  H      -0.061641     -1.394068      2.992260
  H       0.060919      1.369248     -0.961692
8
Coordinates from ORCA-job run E -488.150360818648
  Al      0.000063     -0.002038      2.293325
  Al     -0.000286     -0.001721     -0.224159
  H       1.187301     -0.039540      1.034493
  H      -0.063837     -1.418280     -0.947016
  H      -1.186165      0.066677      1.034701
  H       0.062307      1.394571      3.053702
  H      -0.062719     -1.418793      3.015369
  H       0.062096      1.395435     -0.983606
8
Coordinates from ORCA-job run E -488.152043338451
  Al      0.000077     -0.002252      2.332543
  Al     -0.000315     -0.001875     -0.263327
  H       1.159264     -0.039322      1.034504
  H      -0.064388     -1.431370     -0.956997
  H      -1.158228      0.064348      1.034717
  H       0.062991      1.408993      3.062360
  H      -0.063357     -1.432012      3.025370
  H       0.062717      1.409800     -0.992363
8
Coordinates from ORCA-job run E -488.152165677794
  Al      0.000085     -0.002279      2.344156
  Al     -0.000322     -0.001877     -0.274930
  H       1.153054     -0.039796      1.034487
  H      -0.064542     -1.435665     -0.958954
  H      -1.152080      0.063272      1.034737
  H       0.063262      1.414127      3.063297
  H      -0.063614     -1.436384      3.027368
  H       0.062918      1.414912     -0.993351
8
Coordinates from ORCA-job run E -488.152186839074
  Al      0.000090     -0.002261      2.346529
  Al     -0.000322     -0.001845     -0.277306
  H       1.153936     -0.040442      1.034468
  H      -0.064570     -1.437006     -0.958471
  H      -1.153009      0.062662      1.034753
  H       0.063387      1.416094      3.061903
  H      -0.063732     -1.437766      3.026918
  H       0.062980      1.416874     -0.991984
8
Coordinates from ORCA-job run E -488.152213989746
  Al      0.000097     -0.002210      2.348230
  Al     -0.000318     -0.001762     -0.279017
  H       1.158688     -0.042115      1.034424
  H      -0.064584     -1.438953     -0.956149
  H      -1.157875      0.061313      1.034787
  H       0.063629      1.419520      3.057214
  H      -0.063951     -1.439783      3.024670
  H       0.063073      1.420299     -0.987350
8
Coordinates from ORCA-job run E -488.152221950504
  Al      0.000097     -0.002198      2.347209
  Al     -0.000314     -0.001730     -0.278001
  H       1.162153     -0.043175      1.034407
  H      -0.064569     -1.439420     -0.954196
  H      -1.161414      0.060507      1.034802
  H       0.063741      1.420900      3.053564
  H      -0.064038     -1.440263      3.022749
  H       0.063103      1.421689     -0.983724
8
Coordinates from ORCA-job run E -488.152224488144
  Al      0.000093     -0.002223      2.345920
  Al     -0.000312     -0.001741     -0.276713
  H       1.163572     -0.043817      1.034406
  H      -0.064554     -1.439381     -0.952961
  H      -1.162885      0.059966      1.034803
  H       0.063791      1.421457      3.051005
  H      -0.064060     -1.440211      3.021523
  H       0.063114      1.422261     -0.981173
8
Coordinates from ORCA-job run E -488.152225827356
  Al      0.000087     -0.002273      2.345108
  Al     -0.000310     -0.001778     -0.275900
  H       1.163745     -0.044364      1.034412
  H      -0.064547     -1.439326     -0.952199
  H      -1.163109      0.059419      1.034799
  H       0.063830      1.421977      3.048854
  H      -0.064067     -1.440139      3.020765
  H       0.063131      1.422794     -0.979028
8
Coordinates from ORCA-job run E -488.152227097211
  Al      0.000078     -0.002366      2.344545
  Al     -0.000310     -0.001852     -0.275336
  H       1.163212     -0.045202      1.034422
  H      -0.064545     -1.439330     -0.951567
  H      -1.162658      0.058515      1.034791
  H       0.063891      1.422919      3.045936
  H      -0.064075     -1.440126      3.020141
  H       0.063166      1.423753     -0.976120
8
Coordinates from ORCA-job run E -488.152227667074
  Al      0.000072     -0.002446      2.344613
  Al     -0.000311     -0.001918     -0.275405
  H       1.162498     -0.045872      1.034427
  H      -0.064546     -1.439352     -0.951640
  H      -1.162009      0.057772      1.034785
  H       0.063935      1.423715      3.044132
  H      -0.064079     -1.440147      3.020225
  H       0.063201      1.424557     -0.974327
8
Coordinates from ORCA-job run E -488.152227930739
  Al      0.000069     -0.002505      2.344866
  Al     -0.000313     -0.001970     -0.275659
  H       1.162052     -0.046386      1.034427
  H      -0.064546     -1.439280     -0.952188
  H      -1.161612      0.057218      1.034783
  H       0.063958      1.424238      3.043253
  H      -0.064074     -1.440086      3.020785
  H       0.063226      1.425080     -0.973457
