92
Coordinates from ORCA-job run E -4952.481499614217
  Zr         -0.37176008341030      1.98198140127550      1.27981110003094
  Zr          0.77223087396006     -2.21463854935448     -1.41918153593075
  Zr          1.59430984771855     -1.16018071190695      1.78528946244901
  Zr         -1.19107654742686      0.96449483297293     -1.92276309214815
  Zr          2.20294156558755      0.94032668306010     -1.26936714586937
  Zr         -1.81757918569533     -1.17241894356119      1.07305770598133
  O          -1.66574873392923      0.62947492396857      0.05067222202760
  O           2.05121755206167     -0.83703648067205     -0.21596259097674
  O          -0.00851063819631     -2.01287605200074      0.48911274192196
  O           0.40873220515988      1.79651456506929     -0.65520314324126
  O           0.49819186055952     -0.24662477957925     -2.06488059058054
  O          -0.11824773507734      0.01991423128231      1.88462296705271
  O          -2.17675755011150      2.05969075091377      2.58584528474793
  O          -1.58764155845514      3.63967405301930      0.41617190492673
  O           0.62604685011313      2.11919880965194      3.30356118090621
  O           1.31188555305356      3.44358112551738      1.17214627110970
  O          -0.71620349796927     -3.90326373064381     -1.20000638951071
  O          -0.48052555898525     -2.37021391044122     -3.27884600273439
  O           2.12679090651636     -3.78253960516820     -0.58803687372065
  O           2.48597189867046     -2.25551606112857     -2.84483595671187
  O           0.64226314380768     -2.37328391654163      3.39470159566386
  O           1.95766748407712      0.27979906690623      3.46849319304505
  O           2.53579434875612     -3.16743182176877      1.55739752935185
  O           3.76152171326594     -0.53456685040637      1.76326545445894
  O          -3.43042007132445      0.44024217624161     -1.91781113869727
  O          -2.07575536398654      2.97950356069856     -1.69341245635045
  O          -1.63952051509814     -0.44810360271916     -3.61909070865333
  O          -0.27121262042814      2.13426489138780     -3.61014159694357
  O           1.95051755009954      2.10739584336309     -3.16320019383623
  O           2.74853504265888      3.02178869926777     -0.54049732069830
  O           3.40957395741555     -0.18801262402710     -2.75387486666791
  O           4.07264780711269      0.82949917085634     -0.03378509349157
  O          -3.70435427538858     -0.98335737924726     -0.15638472132726
  O          -3.02925326207576     -0.04505177161609      2.56707813728337
  O          -2.34706522131857     -3.17686167240308      0.21393229472822
  O          -1.57992212508881     -2.35874293017100      2.94335834938682
  C          -3.00774107550854      1.16892042333808      2.94277199316959
  C          -2.09914524502272      3.80924598373148     -0.73240133983404
  C           1.37998326245776      1.31597069594129      3.92929487484458
  C           2.20851535850961      3.76770520303829      0.32542208383036
  C          -1.73484347327377     -4.06320767886133     -0.46232665228970
  C          -1.15126746908900     -1.56350706899568     -3.98906429382275
  C           2.64268480674248     -3.94626457607090      0.55986560166100
  C           3.32939314766307     -1.37560214991296     -3.19640840600008
  C          -0.56544739080706     -2.68524900557797      3.63273876090364
  C           4.47370708152446      0.10146653666820      0.92954943615378
  C          -4.12591337729124     -0.22441092579904     -1.07996506946628
  C           0.94472971006763      2.42131239359620     -3.86272191090373
  H          -1.35857760913163     -1.87443516610912     -5.05181151670994
  H           3.25686020724168     -4.87969522304033      0.70895094813392
  H           1.57593539198025      1.55408405106266      5.01482642872063
  H          -2.62565073391546      4.78697251875828     -0.92245583779673
  H           4.08373000614371     -1.67752185979119     -3.97774763126248
  H           1.13874327096127      3.01274944766279     -4.80224786724531
  H           2.57219920214397      4.83603872067128      0.36943732389642
  H           5.59145357821305      0.03031683483805      1.06767573266272
  H          -2.15788107424952     -5.10798503285330     -0.41083870402518
  H          -5.24534546969979     -0.13429990515377     -1.18696971111344
  H          -3.80991209989100      1.48837226727835      3.66711159237954
  H          -0.75531395158219     -3.31600262072760      4.54720402730207
  Al         -6.32053776116096      1.62918214642807     -6.84142783255660
  Al         -5.25835332354792      1.84009501154148     -3.84146953770644
  Al         -4.47228207957385     -0.27673011457107     -6.16326047312952
  Al         -5.09207293569532     -0.00465464702251     -9.29673786124387
  Al         -1.54426268848977      1.38462172586922     -6.56181433273319
  Al         -3.15220165985686      4.07283789695209     -5.24042128213530
  Al         -2.80157268979638      2.54540789639983     -9.46384006408761
  Al         -0.73950771457280      4.32020067330245     -7.55563699998060
  H           0.54203130270431      5.28480899739494     -7.73404935875449
  H          -0.35179723242904      2.80082606234841     -6.91729769195511
  H          -1.55907269053937      3.91470442019768     -8.95030808154011
  H          -1.91114985708555      4.84421446107932     -6.49284547236827
  H          -4.43259058997248      4.36659074115641     -6.18237732713491
  H          -2.43463674129574      4.89106180406224     -4.04958325971223
  H          -4.09509000841359      3.01591706333108     -3.94970046428609
  H          -6.09367253553819      1.71959495405689     -2.46714921136722
  H          -2.45639000104937      2.49246840646835     -5.62831257419358
  H          -4.59320997440072      0.45517009402983     -4.51830354718974
  H          -2.80249719910571      0.17419912159643     -6.28839534495060
  H          -4.48596749063997     -1.80093168722577     -5.61981373046666
  H          -4.46534329581575     -0.75711462629040     -7.91628822116453
  H          -3.82165473043162      0.94344299664723     -9.79759173348585
  H          -5.64058530115609     -1.05585914338007    -10.38902323631382
  H          -1.96272111579538      2.29280198163700    -10.81887992522138
  H          -0.25594813121426      0.43778102151324     -6.36062672865378
  H          -2.15252863864145      1.55821574084553     -8.16012443970006
  H          -7.51218577802202      2.61995500181294     -7.27303378741321
  H          -6.33182570315784      2.22364210474896     -5.10375987932874
  H          -6.24947470274220      1.01063224365748     -8.63683693013906
  H          -6.37101416905496     -0.00470292673567     -6.31364852844457
  H          -4.08227591594810      3.41999231919721     -9.01812165346666
  H          -4.63189080929455      1.57497682859013     -6.82471215186225
