28
Coordinates from ORCA-job run E -1707.898617297035
  Al          1.45363689110979     -4.19588364578696      0.56794558349622
  Al          1.73660657497782     -4.12383944220844      3.91494030757915
  Al          0.95100245085170     -0.88773832288047      1.04209925658663
  Al         -0.67489064080079     -2.11380732485240      3.48755404497405
  Al         -1.13985227816567      0.65167855001365      2.00413206251202
  Al         -0.95417891503513      0.55154938175231      5.27154604613088
  Al         -2.50940392496385     -1.94843133285759      6.01151788610981
  H           0.31369438562066     -5.08371378464017     -0.14688134442989
  H           3.05314464735609     -4.23510879250297      0.33157821369700
  H           1.54181641040884     -5.48267060956236      4.76483238073078
  H           3.02847255299276     -3.15279933861171      3.85850031889569
  H           1.22199585459055     -4.43032664380072      2.28901928259588
  H           1.00644396822721     -2.53203476421160      0.39435812950872
  H           2.22368491582090     -0.12017636624653      0.44089322085572
  H          -0.64106479112602     -0.51640819927163      0.58225463423422
  H          -1.33544196363261      1.45549926740533      3.93715238677804
  H          -1.73323149434440     -0.67911184641774      2.84651721374332
  H           0.48633013262741      0.85380238092115      2.22120136943814
  H          -2.14451237971857      1.68008187778354      1.29008050131074
  H          -2.45198103431579     -0.19532822610512      5.67928831055072
  H          -4.06277078337223     -2.20682248382934      6.37210664376161
  H          -1.23293212950077     -2.25204860943313      6.94343505185487
  H          -2.17713006691247     -2.50384721726604      4.42356717810763
  H           0.37406966027830     -3.17608412134375      4.40458879735182
  H           0.81297427794706     -1.51226194793986      2.59962331529683
  H          -1.17943666592470     -3.07627886676914      2.27793288158338
  H          -0.15605709555909     -0.84634910980083      4.69312196283370
  H          -0.15562855943699      1.16619953846256      6.52482436391213
