32
Coordinates from ORCA-job run E -1952.677310536796
  Al         -0.23786338310148      2.44511714714138      0.58112578969654
  Al         -2.98968622540704      1.12494943569847      1.30223213248478
  Al         -0.17817657629915     -0.24032474232526      0.84934351355222
  Al          2.64222460810761      1.22353136788416      0.80200875532919
  Al          0.17558943581639     -0.62302303420862      4.15271786173003
  Al         -2.18553405004897      1.66948442045979      4.54717576327251
  Al          2.23888625923155      1.97959284197784      3.99696952298701
  Al          0.30659958960435      1.37476881653606      6.57078349454512
  H           0.66652545252104      1.46265298198196      8.11553372839966
  H           0.44282224817169     -0.14522687343002      5.90334429846333
  H           1.24005531565882      2.26099647215984      5.54238189098362
  H          -1.24305663901219      1.76168982979077      6.15848314395232
  H          -1.48740094258227      2.95497223045769      3.91594310235742
  H          -3.52659588561081      1.34754475193127      5.34041949612740
  H          -3.05656521262751      1.19493152813730      2.93831920303713
  H          -4.37950515947565      0.98274311512879      0.54389824195608
  H          -1.30673851713343      0.19621618842500      4.19550609763202
  H          -1.95876980884757     -0.15398496744411      1.03964383992926
  H          -0.06819568748013     -0.87148917351369      2.43745625957714
  H          -0.21865404979545     -1.48705345560295     -0.14262287684387
  H           1.61316328237094     -0.08617891955883      0.82283737697441
  H           3.05815996991457      1.39597962333172      2.38063222524404
  H           3.83949343916982      1.07075673773058     -0.23229154529141
  H           3.58346569944137      1.65684476097153      4.78534783784715
  H           0.37668994182637     -2.14759376923852      4.55034701403032
  H           1.37681107414571      0.48761831895273      3.73480587998477
  H          -0.29173849896684      4.00143870819609      0.29368506673679
  H          -2.06398479099973      2.40504835692499      0.79681325843250
  H           1.58881011817469      2.45430655524247      0.44564519627496
  H          -0.30664620164683      1.11321399920356     -0.45031486308077
  H           1.57595739200940      3.25891311045514      3.31738038584321
  H          -0.12242219712930      1.37756363660266      1.86882890783447
