12
Coordinates from ORCA-job run E -732.236316625045
  Al         -0.23721564113587      1.52918772661093      2.57322748973912
  Al         -0.00000926166561     -0.00042207651318     -0.10229899995032
  H           0.82915266402917     -0.97725340430339      1.04758061000496
  H          -1.14696647532152     -0.86566778843099     -0.78250560562571
  H          -0.81863043258365      0.98468384687596      1.04825284571814
  H          -1.51086684831787      2.16310740527865      3.28285813605428
  H           0.00343000875536      0.00064992239783      3.31431455356583
  H           1.14003474721179      0.86010498942086     -0.79984494317630
  Al          0.26419231142845     -1.52633179514012      2.57700172811026
  H           1.54940274178770     -2.14248814234701      3.28137861350198
  H          -1.17543604797033     -2.17134742660295      2.37201849758920
  H           1.20985223378239      2.15408674275341      2.35837707446855
