12
Coordinates from ORCA-job run E -732.215874485829
  Al     -0.290400      1.462690      2.547080
  Al      0.000000      0.000000      0.000000
  H       0.843190     -1.128760      0.963670
  H      -1.048990     -0.783770     -0.912390
  H      -0.833610      1.133940      0.965190
  H      -1.395550      2.308350      3.328860
  H      -0.000000      0.000000      3.372030
  H       1.040310      0.778650     -0.926760
  Al      0.313310     -1.459560      2.549740
  H       1.438820     -2.280270      3.329350
  H      -1.029590     -2.320930      2.483270
  H       1.069450      2.297970      2.470320
12
Coordinates from ORCA-job run E -732.220320330047
  Al     -0.284477      1.468905      2.548342
  Al      0.000211      0.000175     -0.009077
  H       0.844579     -1.117658      0.969843
  H      -1.062951     -0.793494     -0.895309
  H      -0.837137      1.120347      0.972570
  H      -1.411218      2.288384      3.325196
  H       0.000207      0.000058      3.365407
  H       1.055766      0.790364     -0.907504
  Al      0.307848     -1.466223      2.551527
  H       1.455254     -2.259498      3.325579
  H      -1.050644     -2.301162      2.469529
  H       1.089501      2.278113      2.454256
12
Coordinates from ORCA-job run E -732.226967339389
  Al     -0.277122      1.478702      2.551732
  Al      0.000066      0.000591     -0.026908
  H       0.834852     -1.107509      0.976482
  H      -1.093887     -0.801469     -0.863991
  H      -0.831653      1.105466      0.981351
  H      -1.444267      2.246397      3.317173
  H       0.000548     -0.000808      3.350015
  H       1.090865      0.801645     -0.868925
  Al      0.299973     -1.478921      2.555844
  H       1.492830     -2.212173      3.315501
  H      -1.085528     -2.263428      2.451455
  H       1.120264      2.239819      2.430631
12
Coordinates from ORCA-job run E -732.230364273840
  Al     -0.273378      1.484874      2.554684
  Al     -0.000354      0.000887     -0.039392
  H       0.824795     -1.102423      0.980161
  H      -1.115587     -0.803624     -0.842758
  H      -0.824542      1.097555      0.986143
  H      -1.466596      2.217235      3.311226
  H       0.000627     -0.001803      3.338363
  H       1.116078      0.805179     -0.841025
  Al      0.295221     -1.487933      2.559261
  H       1.519388     -2.177238      3.306637
  H      -1.106949     -2.237582      2.441018
  H       1.138237      2.213181      2.416043
12
Coordinates from ORCA-job run E -732.233810244432
  Al     -0.267234      1.495458      2.559862
  Al     -0.000780      0.001303     -0.059015
  H       0.808517     -1.094040      0.985949
  H      -1.146455     -0.805674     -0.811516
  H      -0.812513      1.085147      0.993319
  H      -1.498734      2.173748      3.301155
  H       0.000854     -0.002900      3.320665
  H       1.151872      0.808670     -0.799870
  Al      0.288069     -1.502050      2.564926
  H       1.556125     -2.126121      3.291523
  H      -1.136162     -2.200857      2.427279
  H       1.163381      2.175627      2.396082
12
Coordinates from ORCA-job run E -732.235502448021
  Al     -0.257966      1.510680      2.566566
  Al     -0.000648      0.001712     -0.082797
  H       0.790842     -1.081103      0.994137
  H      -1.177733     -0.808492     -0.777313
  H      -0.799308      1.067522      1.002978
  H      -1.532317      2.125245      3.287476
  H       0.001407     -0.003090      3.301058
  H       1.187395      0.813299     -0.756063
  Al      0.279090     -1.519164      2.572072
  H       1.591290     -2.073140      3.272959
  H      -1.166271     -2.163591      2.413675
  H       1.191158      2.138432      2.375612
12
Coordinates from ORCA-job run E -732.235678088537
  Al     -0.253976      1.516881      2.568526
  Al     -0.000313      0.001763     -0.089365
  H       0.788775     -1.074278      0.997932
  H      -1.182330     -0.810777     -0.772920
  H      -0.798455      1.059375      1.007090
  H      -1.537989      2.118559      3.283910
  H       0.001584     -0.002356      3.298014
  H       1.192100      0.816784     -0.750942
  Al      0.275985     -1.524197      2.574244
  H       1.595596     -2.068454      3.269702
  H      -1.172139     -2.161195      2.411767
  H       1.198101      2.136207      2.372401
12
Coordinates from ORCA-job run E -732.235909550306
  Al     -0.247021      1.527240      2.571077
  Al      0.000420      0.001791     -0.097877
  H       0.789569     -1.060662      1.005233
  H      -1.183250     -0.815907     -0.774040
  H      -0.800739      1.044019      1.014839
  H      -1.540823      2.119001      3.279689
  H       0.001848     -0.000524      3.296861
  H       1.191894      0.824474     -0.753468
  Al      0.271033     -1.531022      2.577290
  H       1.594690     -2.075306      3.268099
  H      -1.176967     -2.168306      2.411522
  H       1.206285      2.143511      2.371136
12
Coordinates from ORCA-job run E -732.236120572717
  Al     -0.239120      1.538277      2.573094
  Al      0.001328      0.001815     -0.104993
  H       0.793974     -1.042584      1.014860
  H      -1.177791     -0.822884     -0.782939
  H      -0.805992      1.024582      1.025030
  H      -1.537593      2.130145      3.276380
  H       0.002189      0.001898      3.298622
  H       1.184001      0.834677     -0.766173
  Al      0.265692     -1.536860      2.580089
  H       1.585972     -2.095998      3.269462
  H      -1.177620     -2.185797      2.413733
  H       1.211901      2.161039      2.373195
12
Coordinates from ORCA-job run E -732.236215906341
  Al     -0.235153      1.542884      2.573396
  Al      0.001775      0.001841     -0.106818
  H       0.798605     -1.029880      1.021701
  H      -1.169814     -0.827493     -0.792872
  H      -0.810154      1.011979      1.032119
  H      -1.530750      2.143627      3.275492
  H       0.002540      0.003172      3.301105
  H       1.173941      0.840931     -0.779502
  Al      0.263121     -1.538170      2.581049
  H       1.575398     -2.115645      3.271966
  H      -1.174288     -2.200671      2.416304
  H       1.211719      2.175735      2.376420
12
Coordinates from ORCA-job run E -732.236248598909
  Al     -0.234770      1.542227      2.572872
  Al      0.001720      0.001857     -0.105925
  H       0.800647     -1.024071      1.024962
  H      -1.164768     -0.829187     -0.797747
  H      -0.811182      1.007156      1.035252
  H      -1.525777      2.150708      3.275659
  H       0.002879      0.003153      3.301739
  H       1.168028      0.842636     -0.785722
  Al      0.262810     -1.536882      2.580886
  H       1.569443     -2.124154      3.273173
  H      -1.171427     -2.205709      2.417231
  H       1.209337      2.180576      2.377981
12
Coordinates from ORCA-job run E -732.236270572681
  Al     -0.235491      1.539812      2.572242
  Al      0.001423      0.001853     -0.104816
  H       0.801275     -1.019232      1.027802
  H      -1.161311     -0.830366     -0.800010
  H      -0.810449      1.003778      1.037763
  H      -1.522100      2.154387      3.275827
  H       0.003313      0.002607      3.300884
  H       1.164180      0.843143     -0.788418
  Al      0.263017     -1.534950      2.580550
  H       1.565909     -2.127423      3.273413
  H      -1.169720     -2.205783      2.416889
  H       1.206896      2.180483      2.378235
12
Coordinates from ORCA-job run E -732.236286639486
  Al     -0.236574      1.536942      2.571840
  Al      0.000983      0.001798     -0.104402
  H       0.800909     -1.014073      1.030836
  H      -1.159438     -0.831810     -0.800253
  H      -0.808529      1.000332      1.040287
  H      -1.520039      2.155399      3.275875
  H       0.003803      0.001862      3.298998
  H       1.162179      0.843468     -0.788583
  Al      0.263268     -1.533181      2.580371
  H       1.564606     -2.127086      3.272904
  H      -1.169615     -2.202265      2.415244
  H       1.205387      2.176922      2.377243
12
Coordinates from ORCA-job run E -732.236294279161
  Al     -0.237333      1.535315      2.571932
  Al      0.000646      0.001676     -0.104969
  H       0.800382     -1.010216      1.032990
  H      -1.159336     -0.833350     -0.799354
  H      -0.806901      0.997728      1.041917
  H      -1.520016      2.154766      3.276028
  H       0.004102      0.001423      3.297664
  H       1.162059      0.843936     -0.787600
  Al      0.263390     -1.532493      2.580483
  H       1.565280     -2.125308      3.272338
  H      -1.170803     -2.198051      2.413115
  H       1.205470      2.172884      2.375814
12
Coordinates from ORCA-job run E -732.236297691701
  Al     -0.237785      1.534770      2.572278
  Al      0.000460      0.001508     -0.105776
  H       0.800453     -1.007800      1.034185
  H      -1.159677     -0.834824     -0.798692
  H      -0.806275      0.996162      1.042608
  H      -1.520601      2.154464      3.276498
  H       0.004201      0.001325      3.297608
  H       1.162298      0.844492     -0.787257
  Al      0.263529     -1.532457      2.580681
  H       1.566205     -2.124507      3.272262
  H      -1.171990     -2.195150      2.411200
  H       1.206121      2.170327      2.374764
12
Coordinates from ORCA-job run E -732.236300399587
  Al     -0.238312      1.534413      2.572746
  Al      0.000309      0.001263     -0.106551
  H       0.801280     -1.005467      1.035191
  H      -1.159713     -0.836680     -0.798446
  H      -0.806302      0.994871      1.042943
  H      -1.520972      2.155078      3.277412
  H       0.004221      0.001352      3.298611
  H       1.162056      0.845176     -0.787905
  Al      0.263856     -1.532470      2.580857
  H       1.566736     -2.124961      3.272681
  H      -1.172922     -2.192659      2.408945
  H       1.206703      2.168394      2.373876
12
Coordinates from ORCA-job run E -732.236303351103
  Al     -0.239124      1.533855      2.573360
  Al      0.000136      0.000887     -0.107249
  H       0.803219     -1.002383      1.036421
  H      -1.159084     -0.839427     -0.798527
  H      -0.806976      0.993484      1.043138
  H      -1.520780      2.156918      3.278954
  H       0.004197      0.001414      3.300914
  H       1.160850      0.846103     -0.789827
  Al      0.264514     -1.532277      2.580963
  H       1.566556     -2.126933      3.273699
  H      -1.173566     -2.189780      2.405641
  H       1.206997      2.166448      2.372872
12
Coordinates from ORCA-job run E -732.236305915626
  Al     -0.239975      1.533123      2.573914
  Al     -0.000007      0.000487     -0.107545
  H       0.805977     -0.999152      1.037675
  H      -1.157733     -0.842463     -0.798659
  H      -0.808186      0.992346      1.043243
  H      -1.519811      2.159427      3.280615
  H       0.004144      0.001426      3.303965
  H       1.158694      0.847060     -0.792512
  Al      0.265333     -1.531794      2.580906
  H       1.565365     -2.129942      3.275030
  H      -1.173619     -2.187036      2.401879
  H       1.206759      2.164827      2.371849
12
Coordinates from ORCA-job run E -732.236307895776
  Al     -0.240536      1.532407      2.574265
  Al     -0.000080      0.000175     -0.107402
  H       0.808922     -0.996293      1.038809
  H      -1.156058     -0.845209     -0.798346
  H      -0.809572      0.991566      1.043400
  H      -1.518379      2.161566      3.281814
  H       0.004081      0.001341      3.306849
  H       1.156134      0.847948     -0.794977
  Al      0.266015     -1.531141      2.580686
  H       1.563457     -2.132906      3.276235
  H      -1.173245     -2.184704      2.398260
  H       1.206202      2.163560      2.370767
12
Coordinates from ORCA-job run E -732.236309528560
  Al     -0.240672      1.531807      2.574425
  Al     -0.000089     -0.000028     -0.106980
  H       0.811832     -0.993670      1.039924
  H      -1.154390     -0.847737     -0.797238
  H      -0.810941      0.990917      1.043754
  H      -1.516862      2.162830      3.282407
  H       0.004015      0.001166      3.309187
  H       1.153534      0.848924     -0.796755
  Al      0.266406     -1.530435      2.580346
  H       1.561217     -2.135272      3.277165
  H      -1.172823     -2.182536      2.394703
  H       1.205714      2.162343      2.369422
12
Coordinates from ORCA-job run E -732.236311082556
  Al     -0.240369      1.531298      2.574444
  Al     -0.000054     -0.000155     -0.106376
  H       0.814942     -0.990787      1.041240
  H      -1.152772     -0.850520     -0.795115
  H      -0.812350      0.990101      1.044416
  H      -1.515400      2.163229      3.282522
  H       0.003937      0.000926      3.311072
  H       1.150847      0.850280     -0.797899
  Al      0.266472     -1.529674      2.579887
  H       1.558740     -2.137107      3.277927
  H      -1.172641     -2.180128      2.390683
  H       1.205589      2.160848      2.367559
12
Coordinates from ORCA-job run E -732.236312631828
  Al     -0.239654      1.530842      2.574330
  Al      0.000004     -0.000229     -0.105613
  H       0.818358     -0.987423      1.042844
  H      -1.151251     -0.853834     -0.791997
  H      -0.813834      0.988952      1.045403
  H      -1.514111      2.162912      3.282323
  H       0.003837      0.000671      3.312521
  H       1.148083      0.852204     -0.798517
  Al      0.266193     -1.528853      2.579303
  H       1.556152     -2.138529      3.278634
  H      -1.172889     -2.177406      2.386001
  H       1.206052      2.159002      2.365128
12
Coordinates from ORCA-job run E -732.236314167466
  Al     -0.238644      1.530374      2.574080
  Al      0.000060     -0.000273     -0.104672
  H       0.822093     -0.983603      1.044689
  H      -1.149811     -0.857754     -0.788192
  H      -0.815422      0.987465      1.046614
  H      -1.513011      2.162242      3.282045
  H       0.003711      0.000467      3.313576
  H       1.145248      0.854727     -0.798835
  Al      0.265608     -1.527956      2.578591
  H       1.553561     -2.139762      3.279410
  H      -1.173599     -2.174558      2.380751
  H       1.207145      2.156939      2.362302
12
Coordinates from ORCA-job run E -732.236315469198
  Al     -0.237650      1.529884      2.573731
  Al      0.000086     -0.000307     -0.103641
  H       0.825628     -0.980022      1.046403
  H      -1.148548     -0.861675     -0.784647
  H      -0.816938      0.985954      1.047726
  H      -1.512135      2.161768      3.281955
  H       0.003575      0.000393      3.314202
  H       1.142677      0.857396     -0.799089
  Al      0.264897     -1.527088      2.577850
  H       1.551330     -2.140904      3.280249
  H      -1.174546     -2.172237      2.375878
  H       1.208564      2.155148      2.359745
12
Coordinates from ORCA-job run E -732.236316233326
  Al     -0.237119      1.529479      2.573422
  Al      0.000066     -0.000344     -0.102834
  H       0.827931     -0.977891      1.047380
  H      -1.147695     -0.864309     -0.782704
  H      -0.817972      0.985004      1.048293
  H      -1.511543      2.161939      3.282193
  H       0.003478      0.000466      3.314394
  H       1.141023      0.859235     -0.799398
  Al      0.264393     -1.526515      2.577318
  H       1.550018     -2.141790      3.280922
  H      -1.175236     -2.171203      2.372974
  H       1.209597      2.154238      2.358399
12
Coordinates from ORCA-job run E -732.236316514917
  Al     -0.237096      1.529269      2.573275
  Al      0.000025     -0.000383     -0.102454
  H       0.828799     -0.977329      1.047590
  H      -1.147258     -0.865295     -0.782395
  H      -0.818415      0.984734      1.048332
  H      -1.511172      2.162536      3.282561
  H       0.003441      0.000578      3.314370
  H       1.140357      0.859900     -0.799680
  Al      0.264229     -1.526332      2.577095
  H       1.549579     -2.142268      3.281252
  H      -1.175436     -2.171196      2.372175
  H       1.209888      2.154096      2.358239
12
Coordinates from ORCA-job run E -732.236316625045
  Al     -0.237216      1.529188      2.573227
  Al     -0.000009     -0.000422     -0.102299
  H       0.829153     -0.977253      1.047581
  H      -1.146966     -0.865668     -0.782506
  H      -0.818630      0.984684      1.048253
  H      -1.510867      2.163107      3.282858
  H       0.003430      0.000650      3.314315
  H       1.140035      0.860105     -0.799845
  Al      0.264192     -1.526332      2.577002
  H       1.549403     -2.142488      3.281379
  H      -1.175436     -2.171347      2.372018
  H       1.209852      2.154087      2.358377
