16
Coordinates from ORCA-job run E -975.587541821049
  Al          0.70038379456210      1.18384451999031      2.54819942805323
  Al         -0.27797673273533     -0.48237765087688      0.11320448722133
  H           0.52595799962541     -1.94713738409323      0.38110073723208
  H          -1.63764020167061     -0.55419800818543      0.90486636309550
  H           0.79766803027226      0.44077807271051      1.02621031240419
  H          -0.46498102593869      2.23751846292360      2.48601855568551
  H           0.10004752790371     -0.16382096358711      3.35470826742921
  H          -0.03398425950710     -0.11513549664362     -1.39395915990748
  Al          1.17808614206368     -2.78200358447346      1.70071955619263
  H          -0.17022817989625     -2.56322191783726      2.68907537639375
  H           1.20720741477118     -4.29798588568637      1.29221691817887
  H           2.18701486883241      1.40101463090983      3.00366627013667
  Al         -0.48321249992072     -1.58460392613303      4.03900945539803
  H          -2.04713375888597     -1.47719142677148      4.12446259910813
  H           0.52957773137121     -1.99882939050484      5.16810487895618
  H           2.34247314915266     -1.89145005174135      2.27662595442179
