20
Coordinates from ORCA-job run E -1220.441601700506
  Al     -0.551808      0.975035      2.923947
  Al      0.154191     -0.418897      0.314489
  H      -0.405326     -2.051576      0.265761
  H      -0.276232      0.226347     -1.070952
  H      -0.966188      0.046806      1.516471
  H      -1.936623      1.052106      3.707879
  H       0.429772     -0.159433      3.697633
  H       1.599590     -0.460385      0.989947
  Al      0.064275     -3.311498      1.337376
  H       0.049367     -2.269334      2.705277
  H      -1.220735     -4.229373      1.518221
  H       0.350545      2.186614      2.414630
  Al      1.190513     -1.753047      3.851650
  H       0.484124     -1.755532      5.429704
  H       2.702928     -1.403817      3.554892
  H       1.565010     -3.740988      1.039407
  Al      0.684103     -3.466260      5.813277
  H       1.808259     -3.535623      6.935723
  H       1.377824     -3.551092      4.264072
  H      -0.777379     -4.095072      5.800583
20
Coordinates from ORCA-job run E -1220.441655185431
  Al     -0.552807      0.972709      2.923472
  Al      0.156690     -0.420551      0.319087
  H      -0.404914     -2.051440      0.267327
  H      -0.268062      0.224977     -1.066799
  H      -0.966745      0.045032      1.516965
  H      -1.936688      1.049076      3.706935
  H       0.429478     -0.159276      3.696520
  H       1.598447     -0.464774      1.000262
  Al      0.062646     -3.310027      1.339695
  H       0.047671     -2.267385      2.705013
  H      -1.222619     -4.225850      1.520183
  H       0.347679      2.184232      2.413764
  Al      1.189991     -1.751497      3.848667
  H       0.485113     -1.753918      5.427274
  H       2.701096     -1.402017      3.551461
  H       1.561919     -3.741549      1.042704
  Al      0.685140     -3.464675      5.809232
  H       1.809078     -3.534968      6.930371
  H       1.378325     -3.549660      4.260050
  H      -0.775227     -4.093459      5.797806
20
Coordinates from ORCA-job run E -1220.441792924740
  Al     -0.558536      0.961484      2.920587
  Al      0.169336     -0.429441      0.343908
  H      -0.403468     -2.051287      0.274643
  H      -0.223349      0.218354     -1.045379
  H      -0.971621      0.035603      1.519315
  H      -1.937941      1.035064      3.703031
  H       0.428692     -0.157195      3.691217
  H       1.591252     -0.488704      1.057353
  Al      0.054069     -3.302880      1.352043
  H       0.037950     -2.256714      2.703960
  H      -1.233020     -4.209123      1.530589
  H       0.332438      2.173144      2.406878
  Al      1.187958     -1.743149      3.832811
  H       0.491059     -1.745722      5.414557
  H       2.693467     -1.392446      3.533751
  H       1.546826     -3.745018      1.060345
  Al      0.690708     -3.456652      5.787319
  H       1.814052     -3.532723      6.902582
  H       1.381299     -3.542176      4.238246
  H      -0.764962     -4.085442      5.782233
20
Coordinates from ORCA-job run E -1220.441819330625
  Al     -0.560235      0.960039      2.919624
  Al      0.171558     -0.431572      0.349816
  H      -0.403975     -2.051875      0.275317
  H      -0.211932      0.217562     -1.041271
  H      -0.974657      0.033380      1.519699
  H      -1.938860      1.033900      3.703284
  H       0.429312     -0.155426      3.690673
  H       1.588748     -0.494747      1.072393
  Al      0.052175     -3.301940      1.354892
  H       0.034976     -2.253931      2.704107
  H      -1.235606     -4.207237      1.532983
  H       0.328805      2.171977      2.403016
  Al      1.188274     -1.741076      3.829225
  H       0.493074     -1.744230      5.411856
  H       2.693682     -1.390231      3.530411
  H       1.544560     -3.746188      1.064521
  Al      0.692010     -3.455251      5.781933
  H       1.815588     -3.533504      6.896811
  H       1.382326     -3.540539      4.232905
  H      -0.763613     -4.084129      5.777796
20
Coordinates from ORCA-job run E -1220.441945959586
  Al     -0.569850      0.955324      2.913295
  Al      0.180529     -0.443929      0.383555
  H      -0.409283     -2.057470      0.276323
  H      -0.146478      0.214724     -1.018877
  H      -0.997754      0.020157      1.522073
  H      -1.943610      1.034759      3.708526
  H       0.436105     -0.141204      3.689633
  H       1.569827     -0.529765      1.160669
  Al      0.042955     -3.298576      1.371241
  H       0.016252     -2.236912      2.706274
  H      -1.248022     -4.203217      1.546737
  H       0.308799      2.167977      2.373175
  Al      1.192634     -1.728839      3.809230
  H       0.505918     -1.737197      5.396991
  H       2.700620     -1.378159      3.514969
  H       1.536443     -3.751824      1.089019
  Al      0.698460     -3.448909      5.750348
  H       1.823396     -3.542435      6.865857
  H       1.388701     -3.531530      4.201822
  H      -0.759433     -4.077994      5.749131
20
Coordinates from ORCA-job run E -1220.441986494100
  Al     -0.571265      0.956934      2.911230
  Al      0.178706     -0.447270      0.391524
  H      -0.412896     -2.061064      0.274787
  H      -0.132635      0.215182     -1.014067
  H      -1.008111      0.015781      1.523958
  H      -1.942344      1.041778      3.713360
  H       0.440829     -0.134180      3.691211
  H       1.561679     -0.538243      1.182202
  Al      0.042780     -3.299190      1.375652
  H       0.010171     -2.231588      2.708003
  H      -1.246957     -4.208203      1.550553
  H       0.305144      2.167738      2.358616
  Al      1.195785     -1.725282      3.804779
  H       0.509568     -1.736764      5.393563
  H       2.706433     -1.375692      3.515184
  H       1.538937     -3.750447      1.096029
  Al      0.698500     -3.448921      5.741734
  H       1.822814     -3.548694      6.859589
  H       1.390421     -3.529434      4.193743
  H      -0.761348     -4.077461      5.738341
20
Coordinates from ORCA-job run E -1220.442030963691
  Al     -0.569424      0.961536      2.909454
  Al      0.170599     -0.449874      0.395448
  H      -0.418427     -2.066760      0.272363
  H      -0.131303      0.216663     -1.011542
  H      -1.020398      0.010648      1.528507
  H      -1.935409      1.056434      3.721548
  H       0.448372     -0.125045      3.694788
  H       1.552029     -0.542186      1.191599
  Al      0.046807     -3.301150      1.379385
  H       0.004509     -2.226523      2.710871
  H      -1.237428     -4.220034      1.554095
  H       0.305928      2.166506      2.338643
  Al      1.200364     -1.722166      3.802831
  H       0.511454     -1.738510      5.391411
  H       2.714658     -1.375007      3.522040
  H       1.547649     -3.742842      1.102471
  Al      0.695279     -3.451520      5.735177
  H       1.816663     -3.558620      6.857297
  H       1.391104     -3.528192      4.188304
  H      -0.766814     -4.078378      5.725300
20
Coordinates from ORCA-job run E -1220.442066471435
  Al     -0.565395      0.965605      2.908089
  Al      0.160722     -0.452269      0.397915
  H      -0.423399     -2.072543      0.271727
  H      -0.137250      0.217494     -1.008261
  H      -1.030458      0.004742      1.535022
  H      -1.924864      1.071644      3.729388
  H       0.455954     -0.116870      3.698134
  H       1.543018     -0.543624      1.193549
  Al      0.052657     -3.302324      1.383489
  H      -0.000230     -2.221679      2.713817
  H      -1.223613     -4.231911      1.558331
  H       0.309042      2.162234      2.318671
  Al      1.204140     -1.719250      3.801487
  H       0.511452     -1.740690      5.389006
  H       2.720756     -1.374814      3.530112
  H       1.557642     -3.731093      1.109542
  Al      0.690491     -3.454800      5.729342
  H       1.807422     -3.568530      6.855210
  H       1.390684     -3.527078      4.183786
  H      -0.772561     -4.079265      5.711635
20
Coordinates from ORCA-job run E -1220.442110214100
  Al     -0.557671      0.970190      2.906136
  Al      0.145547     -0.456211      0.402131
  H      -0.429681     -2.081000      0.273722
  H      -0.150442      0.217710     -1.001011
  H      -1.042755     -0.005555      1.547014
  H      -1.906316      1.093713      3.739868
  H       0.466852     -0.105867      3.702336
  H       1.530278     -0.544957      1.193274
  Al      0.062453     -3.302503      1.391298
  H      -0.007102     -2.213907      2.718303
  H      -1.200026     -4.248106      1.566691
  H       0.315043      2.152024      2.288419
  Al      1.208413     -1.714573      3.798814
  H       0.509819     -1.743892      5.384084
  H       2.726945     -1.374154      3.541139
  H       1.572867     -3.709572      1.122474
  Al      0.682318     -3.459962      5.719546
  H       1.791491     -3.583049      6.850183
  H       1.389103     -3.525143      4.176103
  H      -0.780928     -4.080208      5.689464
20
Coordinates from ORCA-job run E -1220.442139323774
  Al     -0.550783      0.972254      2.904614
  Al      0.134577     -0.459425      0.406145
  H      -0.432972     -2.086882      0.278287
  H      -0.163329      0.217059     -0.993705
  H      -1.049067     -0.014425      1.557724
  H      -1.891284      1.109505      3.746178
  H       0.474061     -0.098978      3.704688
  H       1.522008     -0.545586      1.191563
  Al      0.070274     -3.301097      1.399124
  H      -0.012290     -2.207574      2.721846
  H      -1.181018     -4.258570      1.575317
  H       0.320725      2.141528      2.265431
  Al      1.210015     -1.710792      3.795990
  H       0.507234     -1.746300      5.379131
  H       2.728951     -1.372944      3.547252
  H       1.584495     -3.690498      1.134831
  Al      0.675727     -3.464178      5.710819
  H       1.778754     -3.593647      6.844478
  H       1.387238     -3.523580      4.169007
  H      -0.787105     -4.080888      5.671271
20
Coordinates from ORCA-job run E -1220.442163026429
  Al     -0.544753      0.973080      2.903170
  Al      0.126668     -0.462092      0.410272
  H      -0.434148     -2.091083      0.284810
  H      -0.175640      0.216069     -0.986726
  H      -1.051548     -0.022314      1.567474
  H      -1.879624      1.122180      3.749661
  H       0.478557     -0.094575      3.706071
  H       1.516955     -0.546075      1.190076
  Al      0.076604     -3.298746      1.407576
  H      -0.016879     -2.202005      2.725098
  H      -1.165725     -4.265848      1.584777
  H       0.326442      2.131508      2.246282
  Al      1.209689     -1.707533      3.792969
  H       0.504141     -1.748507      5.374180
  H       2.728595     -1.371013      3.549393
  H       1.594318     -3.673226      1.147630
  Al      0.670468     -3.468196      5.702220
  H       1.768883     -3.602272      6.838242
  H       1.385456     -3.522455      4.161725
  H      -0.792248     -4.081918      5.655089
20
Coordinates from ORCA-job run E -1220.442184256754
  Al     -0.539520      0.973965      2.901467
  Al      0.120621     -0.464411      0.414743
  H      -0.434108     -2.094565      0.292626
  H      -0.187321      0.215179     -0.980221
  H      -1.052298     -0.029731      1.576768
  H      -1.870711      1.135002      3.751442
  H       0.481366     -0.090957      3.707420
  H       1.513754     -0.546966      1.190059
  Al      0.082003     -3.296120      1.417146
  H      -0.021929     -2.196548      2.728692
  H      -1.152844     -4.272353      1.595485
  H       0.332373      2.122330      2.227748
  Al      1.208242     -1.704415      3.789825
  H       0.500952     -1.751103      5.369318
  H       2.727448     -1.368278      3.548763
  H       1.603823     -3.656961      1.161732
  Al      0.666245     -3.472722      5.692883
  H       1.761187     -3.610818      6.831526
  H       1.384173     -3.521780      4.153642
  H      -0.797245     -4.083768      5.638928
20
Coordinates from ORCA-job run E -1220.442201349673
  Al     -0.535844      0.975761      2.899623
  Al      0.116622     -0.466041      0.418627
  H      -0.433421     -2.097395      0.299902
  H      -0.196875      0.214713     -0.975432
  H      -1.052434     -0.035653      1.584372
  H      -1.865344      1.148272      3.751730
  H       0.482544     -0.087594      3.709278
  H       1.512065     -0.548271      1.191503
  Al      0.085994     -3.294226      1.426374
  H      -0.027247     -2.191823      2.732470
  H      -1.143341     -4.278610      1.605643
  H       0.337769      2.115637      2.211184
  Al      1.206431     -1.701750      3.787414
  H       0.498385     -1.754147      5.365645
  H       2.726435     -1.365180      3.546523
  H       1.612184     -3.643893      1.175123
  Al      0.663585     -3.477552      5.684053
  H       1.756257     -3.619078      6.825616
  H       1.383982     -3.521696      4.146025
  H      -0.801539     -4.086494      5.624319
20
Coordinates from ORCA-job run E -1220.442212077150
  Al     -0.534624      0.978233      2.898177
  Al      0.115382     -0.466629      0.420712
  H      -0.432629     -2.099095      0.304142
  H      -0.201574      0.214625     -0.973459
  H      -1.052584     -0.038512      1.588214
  H      -1.864165      1.158988      3.750643
  H       0.482026     -0.084926      3.711426
  H       1.511630     -0.549726      1.193767
  Al      0.087638     -3.293879      1.432414
  H      -0.031503     -2.189064      2.735432
  H      -1.139078     -4.283253      1.611932
  H       0.341113      2.113036      2.201038
  Al      1.205096     -1.700129      3.786608
  H       0.497269     -1.756824      5.364349
  H       2.725821     -1.362614      3.544138
  H       1.616880     -3.637596      1.183815
  Al      0.663132     -3.481343      5.678271
  H       1.754783     -3.624996      6.822121
  H       1.385139     -3.522039      4.141200
  H      -0.803542     -4.089278      5.615051
20
Coordinates from ORCA-job run E -1220.442219693984
  Al     -0.534661      0.981112      2.896951
  Al      0.115543     -0.466796      0.421891
  H      -0.431960     -2.100343      0.306543
  H      -0.203342      0.214416     -0.972593
  H      -1.053074     -0.039782      1.590042
  H      -1.864586      1.168708      3.748702
  H       0.480553     -0.082381      3.713905
  H       1.511350     -0.551491      1.196545
  Al      0.088023     -3.294494      1.436583
  H      -0.035301     -2.187290      2.737968
  H      -1.137157     -4.286987      1.615779
  H       0.343328      2.112197      2.194541
  Al      1.204150     -1.698882      3.786758
  H       0.497002     -1.759248      5.364398
  H       2.725084     -1.360184      3.542086
  H       1.619107     -3.635005      1.189808
  Al      0.663901     -3.484494      5.674078
  H       1.754676     -3.629686      6.819675
  H       1.387288     -3.522344      4.137946
  H      -0.803716     -4.092043      5.608384
20
Coordinates from ORCA-job run E -1220.442226914361
  Al     -0.535188      0.984499      2.895625
  Al      0.116522     -0.466919      0.422964
  H      -0.431209     -2.101569      0.308662
  H      -0.203942      0.213660     -0.971639
  H      -1.053660     -0.040523      1.591243
  H      -1.865355      1.179760      3.745602
  H       0.477958     -0.079570      3.717021
  H       1.510930     -0.553836      1.199948
  Al      0.087803     -3.295614      1.440566
  H      -0.039539     -2.185679      2.740729
  H      -1.135764     -4.290559      1.618964
  H       0.345652      2.111403      2.189206
  Al      1.203075     -1.697418      3.787423
  H       0.496983     -1.761894      5.365066
  H       2.723456     -1.357058      3.539843
  H       1.619955     -3.633738      1.195493
  Al      0.665484     -3.487807      5.669830
  H       1.754868     -3.634438      6.816985
  H       1.390539     -3.522361      4.134891
  H      -0.802360     -4.095359      5.601570
20
Coordinates from ORCA-job run E -1220.442232916392
  Al     -0.535739      0.987618      2.894351
  Al      0.117902     -0.467142      0.424012
  H      -0.430492     -2.102604      0.310766
  H      -0.204070      0.212215     -0.970340
  H      -1.054007     -0.040891      1.592056
  H      -1.865811      1.190749      3.741720
  H       0.474437     -0.077141      3.720239
  H       1.510444     -0.556280      1.203116
  Al      0.087235     -3.296785      1.444097
  H      -0.043546     -2.184362      2.743360
  H      -1.134567     -4.293389      1.621419
  H       0.348414      2.109985      2.185503
  Al      1.201793     -1.695789      3.788337
  H       0.496883     -1.764368      5.365940
  H       2.720797     -1.353367      3.537675
  H       1.619554     -3.633217      1.200381
  Al      0.667437     -3.490873      5.665871
  H       1.754889     -3.638609      6.814240
  H       1.394367     -3.521843      4.132256
  H      -0.799709     -4.098928      5.594992
20
Coordinates from ORCA-job run E -1220.442236047456
  Al     -0.535787      0.989045      2.893583
  Al      0.118631     -0.467503      0.424813
  H      -0.430312     -2.103105      0.312273
  H      -0.204251      0.210741     -0.969150
  H      -1.054109     -0.040993      1.592510
  H      -1.865462      1.197347      3.739002
  H       0.471652     -0.076159      3.722152
  H       1.510015     -0.557670      1.204681
  Al      0.086831     -3.297320      1.445924
  H      -0.045586     -2.183777      2.744793
  H      -1.133673     -4.294578      1.622510
  H       0.350910      2.108176      2.184181
  Al      1.200839     -1.694587      3.788925
  H       0.496550     -1.765650      5.366370
  H       2.718486     -1.350529      3.536643
  H       1.618699     -3.632973      1.202643
  Al      0.668659     -3.492499      5.663655
  H       1.754443     -3.640670      6.812665
  H       1.397022     -3.520898      4.130936
  H      -0.797346     -4.101417      5.590881
20
Coordinates from ORCA-job run E -1220.442237840840
  Al     -0.535462      0.989434      2.893099
  Al      0.118616     -0.467943      0.425489
  H      -0.430678     -2.103316      0.313329
  H      -0.204604      0.209552     -0.968286
  H      -1.054318     -0.040986      1.592835
  H      -1.864736      1.201124      3.737445
  H       0.469675     -0.076075      3.723174
  H       1.509595     -0.558261      1.205332
  Al      0.086680     -3.297415      1.446656
  H      -0.046261     -2.183671      2.745438
  H      -1.132991     -4.295039      1.622894
  H       0.353261      2.106349      2.183749
  Al      1.200246     -1.693737      3.789202
  H       0.496072     -1.766194      5.366423
  H       2.717008     -1.348382      3.536527
  H       1.618124     -3.632686      1.203169
  Al      0.669235     -3.493238      5.662595
  H       1.753766     -3.641511      6.812140
  H       1.398729     -3.519797      4.130435
  H      -0.795747     -4.103229      5.588344
20
Coordinates from ORCA-job run E -1220.442240115658
  Al     -0.534804      0.989854      2.892330
  Al      0.118064     -0.468674      0.426570
  H      -0.431747     -2.103585      0.314793
  H      -0.205198      0.207947     -0.967271
  H      -1.055032     -0.040849      1.593303
  H      -1.863611      1.206610      3.735496
  H       0.466792     -0.076258      3.724603
  H       1.508833     -0.558876      1.206276
  Al      0.086576     -3.297465      1.447383
  H      -0.046767     -2.183789      2.746213
  H      -1.132073     -4.295850      1.623325
  H       0.357224      2.103559      2.182873
  Al      1.199540     -1.692530      3.789537
  H       0.495249     -1.766917      5.366395
  H       2.715387     -1.345078      3.536905
  H       1.617655     -3.632200      1.203185
  Al      0.669923     -3.494207      5.661355
  H       1.752709     -3.642579      6.812018
  H       1.401209     -3.517990      4.129976
  H      -0.793720     -4.106142      5.584724
20
Coordinates from ORCA-job run E -1220.442243855671
  Al     -0.533620      0.990977      2.890731
  Al      0.116655     -0.469995      0.428645
  H      -0.434263     -2.104101      0.317373
  H      -0.206019      0.205295     -0.965795
  H      -1.056951     -0.040326      1.594070
  H      -1.861838      1.217644      3.731904
  H       0.461230     -0.076655      3.727480
  H       1.507203     -0.560004      1.208503
  Al      0.086386     -3.297690      1.448572
  H      -0.047514     -2.184323      2.747688
  H      -1.130632     -4.297829      1.624162
  H       0.365014      2.098582      2.180504
  Al      1.198408     -1.690357      3.790204
  H       0.493709     -1.768503      5.366444
  H       2.713036     -1.338671      3.538048
  H       1.617205     -3.631412      1.202727
  Al      0.671307     -3.496192      5.659184
  H       1.751004     -3.644766      6.812383
  H       1.406073     -3.514665      4.129296
  H      -0.790185     -4.112027      5.577868
20
Coordinates from ORCA-job run E -1220.442248660920
  Al     -0.532135      0.993241      2.888222
  Al      0.114417     -0.471740      0.431685
  H      -0.438389     -2.104827      0.320885
  H      -0.206403      0.202036     -0.964117
  H      -1.060369     -0.039169      1.594969
  H      -1.859851      1.234689      3.726469
  H       0.452828     -0.077213      3.731954
  H       1.504544     -0.561854      1.212593
  Al      0.085991     -3.298267      1.450184
  H      -0.048507     -2.185522      2.749928
  H      -1.129028     -4.301175      1.625502
  H       0.376372      2.091807      2.176075
  Al      1.196964     -1.687391      3.791240
  H       0.491555     -1.771230      5.366737
  H       2.710311     -1.329184      3.540062
  H       1.616866     -3.630521      1.201706
  Al      0.673640     -3.499370      5.656134
  H       1.749140     -3.648210      6.813374
  H       1.413432     -3.510162      4.128462
  H      -0.785166     -4.120958      5.567926
20
Coordinates from ORCA-job run E -1220.442253103061
  Al     -0.531009      0.996189      2.885594
  Al      0.112180     -0.473202      0.434749
  H      -0.442870     -2.105445      0.324063
  H      -0.205357      0.199646     -0.962796
  H      -1.064318     -0.037601      1.595592
  H      -1.858585      1.252298      3.720725
  H       0.444144     -0.077784      3.736618
  H       1.501493     -0.564189      1.217853
  Al      0.085372     -3.299081      1.451662
  H      -0.049384     -2.187239      2.752222
  H      -1.128098     -4.304689      1.627017
  H       0.387182      2.085612      2.170537
  Al      1.195736     -1.684764      3.792243
  H       0.489548     -1.774401      5.367237
  H       2.708215     -1.319753      3.542361
  H       1.616636     -3.629880      1.200415
  Al      0.676410     -3.502778      5.653225
  H       1.748179     -3.651721      6.814573
  H       1.420909     -3.506310      4.127732
  H      -0.780173     -4.129927      5.558368
20
Coordinates from ORCA-job run E -1220.442256788722
  Al     -0.530491      0.999268      2.883384
  Al      0.110592     -0.474057      0.437282
  H      -0.446793     -2.105696      0.326368
  H      -0.202539      0.198655     -0.961879
  H      -1.067826     -0.035858      1.595743
  H      -1.858359      1.267067      3.715403
  H       0.436379     -0.078461      3.740623
  H       1.498561     -0.566907      1.223462
  Al      0.084465     -3.299943      1.452654
  H      -0.049924     -2.189356      2.754137
  H      -1.128230     -4.307308      1.628359
  H       0.395333      2.080976      2.165046
  Al      1.194815     -1.683017      3.793003
  H       0.487977     -1.777472      5.367863
  H       2.706732     -1.311997      3.544465
  H       1.616148     -3.629638      1.199008
  Al      0.679337     -3.505759      5.651058
  H       1.748578     -3.654334      6.815540
  H       1.427181     -3.503968      4.127243
  H      -0.775725     -4.137213      5.551229
20
Coordinates from ORCA-job run E -1220.442260497873
  Al     -0.530408      1.002295      2.881569
  Al      0.109659     -0.474462      0.439522
  H      -0.450261     -2.105536      0.328041
  H      -0.197741      0.198863     -0.960950
  H      -1.070792     -0.034068      1.595547
  H      -1.858864      1.279331      3.710227
  H       0.428972     -0.079454      3.744050
  H       1.495598     -0.570353      1.229605
  Al      0.083182     -3.300741      1.453150
  H      -0.050141     -2.191942      2.755724
  H      -1.129348     -4.308791      1.629451
  H       0.401350      2.077187      2.159661
  Al      1.193990     -1.681954      3.793459
  H       0.486632     -1.780400      5.368460
  H       2.705318     -1.305383      3.546451
  H       1.615080     -3.629608      1.197370
  Al      0.682549     -3.508270      5.649503
  H       1.750252     -3.655830      6.816063
  H       1.432505     -3.502830      4.126888
  H      -0.771322     -4.143076      5.546198
20
Coordinates from ORCA-job run E -1220.442265343117
  Al     -0.530496      1.005942      2.879588
  Al      0.109052     -0.474749      0.442471
  H      -0.454417     -2.104939      0.329841
  H      -0.189409      0.200134     -0.959200
  H      -1.074037     -0.031995      1.595215
  H      -1.859746      1.293273      3.703470
  H       0.419144     -0.081198      3.747985
  H       1.491536     -0.576004      1.238372
  Al      0.081080     -3.301609      1.453346
  H      -0.050291     -2.195724      2.757569
  H      -1.131584     -4.309520      1.630523
  H       0.407696      2.072191      2.152740
  Al      1.192759     -1.680965      3.793645
  H       0.484870     -1.783966      5.368949
  H       2.702966     -1.297314      3.549010
  H       1.612891     -3.629460      1.195002
  Al      0.687087     -3.510989      5.647845
  H       1.753541     -3.656468      6.816015
  H       1.438729     -3.502092      4.126363
  H      -0.765160     -4.149568      5.541242
20
Coordinates from ORCA-job run E -1220.442269730560
  Al     -0.530562      1.008951      2.878006
  Al      0.109006     -0.474998      0.445512
  H      -0.458192     -2.104025      0.331392
  H      -0.179725      0.201964     -0.956759
  H      -1.076508     -0.030424      1.594973
  H      -1.860424      1.305554      3.696801
  H       0.408849     -0.083445      3.751408
  H       1.487505     -0.582736      1.247419
  Al      0.078562     -3.302286      1.453026
  H      -0.050554     -2.199729      2.759267
  H      -1.134382     -4.309269      1.630846
  H       0.413443      2.066558      2.146593
  Al      1.191140     -1.680060      3.793523
  H       0.482933     -1.787048      5.369036
  H       2.699687     -1.289355      3.551559
  H       1.609851     -3.629218      1.192259
  Al      0.691880     -3.513025      5.646501
  H       1.757575     -3.655686      6.815338
  H       1.444451     -3.501405      4.125789
  H      -0.758324     -4.155337      5.537502
20
Coordinates from ORCA-job run E -1220.442272490601
  Al     -0.530488      1.010420      2.877152
  Al      0.109418     -0.475272      0.447788
  H      -0.460612     -2.103165      0.332350
  H      -0.172260      0.203440     -0.954496
  H      -1.077605     -0.029818      1.594930
  H      -1.860577      1.313693      3.692104
  H       0.400691     -0.085496      3.753578
  H       1.484919     -0.588374      1.253804
  Al      0.076362     -3.302684      1.452283
  H      -0.051151     -2.202711      2.760503
  H      -1.136818     -4.308664      1.630023
  H       0.418014      2.061643      2.143359
  Al      1.189441     -1.679235      3.793340
  H       0.481276     -1.788741      5.368766
  H       2.696323     -1.283272      3.553417
  H       1.606966     -3.629149      1.189809
  Al      0.695549     -3.513898      5.645787
  H       1.760951     -3.653918      6.814573
  H       1.448434     -3.500345      4.125388
  H      -0.752624     -4.159475      5.535530
20
Coordinates from ORCA-job run E -1220.442274032068
  Al     -0.530432      1.010587      2.876930
  Al      0.110026     -0.475447      0.448920
  H      -0.461571     -2.102561      0.332502
  H      -0.168167      0.204443     -0.953152
  H      -1.077653     -0.029956      1.594948
  H      -1.860542      1.317418      3.689960
  H       0.395938     -0.086856      3.754478
  H       1.484063     -0.591828      1.256822
  Al      0.074860     -3.302899      1.451332
  H      -0.052017     -2.204349      2.761195
  H      -1.138562     -4.308273      1.628372
  H       0.420889      2.058615      2.142881
  Al      1.188111     -1.678695      3.793245
  H       0.480247     -1.789115      5.368416
  H       2.693949     -1.279937      3.554473
  H       1.605007     -3.629424      1.188049
  Al      0.697621     -3.513814      5.645783
  H       1.763253     -3.651924      6.814173
  H       1.450317     -3.499225      4.125263
  H      -0.749125     -4.161781      5.535400
20
Coordinates from ORCA-job run E -1220.442275255897
  Al     -0.530452      1.010586      2.876660
  Al      0.110688     -0.475639      0.450067
  H      -0.462308     -2.102062      0.332390
  H      -0.164414      0.205578     -0.951865
  H      -1.077768     -0.030443      1.595087
  H      -1.860462      1.321283      3.688287
  H       0.391533     -0.087970      3.755297
  H       1.483486     -0.595218      1.259756
  Al      0.073366     -3.303157      1.450393
  H      -0.053577     -2.205722      2.762012
  H      -1.140240     -4.308419      1.626248
  H       0.423907      2.055670      2.142530
  Al      1.186696     -1.678092      3.793092
  H       0.479302     -1.789281      5.367955
  H       2.691791     -1.276843      3.555513
  H       1.603328     -3.629763      1.186642
  Al      0.699559     -3.513591      5.645730
  H       1.765679     -3.649865      6.813763
  H       1.451941     -3.497799      4.124943
  H      -0.745846     -4.164273      5.535489
20
Coordinates from ORCA-job run E -1220.442276288304
  Al     -0.530715      1.010640      2.876308
  Al      0.111474     -0.475636      0.451081
  H      -0.462842     -2.101496      0.331913
  H      -0.160569      0.207124     -0.950805
  H      -1.077984     -0.030931      1.595099
  H      -1.860696      1.325074      3.686851
  H       0.387504     -0.088989      3.755996
  H       1.483103     -0.598425      1.262670
  Al      0.071812     -3.303455      1.449360
  H      -0.055567     -2.207151      2.762841
  H      -1.142109     -4.308830      1.623704
  H       0.426627      2.053178      2.142111
  Al      1.185300     -1.677730      3.792881
  H       0.478472     -1.789447      5.367559
  H       2.690035     -1.274290      3.556638
  H       1.601831     -3.630298      1.185477
  Al      0.701511     -3.513324      5.645886
  H       1.768588     -3.647624      6.813434
  H       1.453196     -3.496537      4.124603
  H      -0.742762     -4.166872      5.536383
20
Coordinates from ORCA-job run E -1220.442277141649
  Al     -0.531216      1.010892      2.875795
  Al      0.112302     -0.475396      0.451991
  H      -0.463202     -2.100841      0.331246
  H      -0.156651      0.209001     -0.949907
  H      -1.078388     -0.031239      1.594955
  H      -1.861216      1.328805      3.685428
  H       0.384014     -0.089914      3.756558
  H       1.482735     -0.601220      1.265615
  Al      0.070312     -3.303696      1.448434
  H      -0.057764     -2.208659      2.763617
  H      -1.143967     -4.309318      1.621138
  H       0.428785      2.051180      2.141239
  Al      1.184019     -1.677714      3.792548
  H       0.477750     -1.789804      5.367278
  H       2.688738     -1.272434      3.557820
  H       1.600561     -3.630831      1.184817
  Al      0.703437     -3.513180      5.646168
  H       1.771852     -3.645439      6.813049
  H       1.454038     -3.495713      4.124213
  H      -0.739930     -4.169500      5.537988
20
Coordinates from ORCA-job run E -1220.442277879272
  Al     -0.531874      1.011273      2.875139
  Al      0.113135     -0.474950      0.452785
  H      -0.463355     -2.100084      0.330565
  H      -0.152925      0.210959     -0.949102
  H      -1.078904     -0.031290      1.594652
  H      -1.861876      1.332214      3.683935
  H       0.381200     -0.090782      3.756900
  H       1.482365     -0.603353      1.268382
  Al      0.068972     -3.303770      1.447716
  H      -0.059931     -2.210166      2.764248
  H      -1.145617     -4.309641      1.618762
  H       0.430285      2.049595      2.140005
  Al      1.182879     -1.678049      3.792074
  H       0.477096     -1.790362      5.367116
  H       2.687779     -1.271358      3.558970
  H       1.599488     -3.631225      1.184769
  Al      0.705233     -3.513188      5.646548
  H       1.775221     -3.643417      6.812507
  H       1.454406     -3.495394      4.123798
  H      -0.737367     -4.172030      5.540222
20
Coordinates from ORCA-job run E -1220.442278650795
  Al     -0.532692      1.011745      2.874250
  Al      0.114117     -0.474305      0.453665
  H      -0.463346     -2.099091      0.329894
  H      -0.148867      0.213119     -0.948126
  H      -1.079553     -0.031113      1.594170
  H      -1.862602      1.335979      3.681991
  H       0.378378     -0.091817      3.757079
  H       1.481929     -0.605205      1.271401
  Al      0.067562     -3.303625      1.447088
  H      -0.062385     -2.211883      2.764830
  H      -1.147261     -4.309738      1.616139
  H       0.431644      2.047828      2.138357
  Al      1.181580     -1.678692      3.791380
  H       0.476281     -1.791195      5.367005
  H       2.686699     -1.270670      3.560272
  H       1.598321     -3.631460      1.185300
  Al      0.707219     -3.513336      5.647049
  H       1.779180     -3.641179      6.811626
  H       1.454437     -3.495377      4.123287
  H      -0.734430     -4.175004      5.543334
20
Coordinates from ORCA-job run E -1220.442279295886
  Al     -0.533416      1.012097      2.873376
  Al      0.115063     -0.473649      0.454417
  H      -0.463158     -2.098064      0.329415
  H      -0.145524      0.214851     -0.947185
  H      -1.080115     -0.030758      1.593594
  H      -1.863133      1.339247      3.679998
  H       0.376055     -0.092845      3.757030
  H       1.481601     -0.606331      1.273872
  Al      0.066382     -3.303255      1.446615
  H      -0.064552     -2.213376      2.765206
  H      -1.148527     -4.309508      1.613691
  H       0.432764      2.046086      2.136913
  Al      1.180314     -1.679445      3.790654
  H       0.475386     -1.792078      5.366962
  H       2.685523     -1.270427      3.561440
  H       1.597255     -3.631463      1.186227
  Al      0.708959     -3.513552      5.647617
  H       1.782867     -3.639130      6.810578
  H       1.454109     -3.495573      4.122839
  H      -0.731643     -4.177848      5.546729
20
Coordinates from ORCA-job run E -1220.442279645671
  Al     -0.533717      1.012182      2.872913
  Al      0.115610     -0.473286      0.454755
  H      -0.462927     -2.097440      0.329270
  H      -0.144157      0.215469     -0.946683
  H      -1.080372     -0.030430      1.593167
  H      -1.863254      1.340913      3.678771
  H       0.374930     -0.093454      3.756858
  H       1.481526     -0.606483      1.274900
  Al      0.065847     -3.302866      1.446382
  H      -0.065621     -2.214031      2.765268
  H      -1.149001     -4.309142      1.612238
  H       0.433442      2.044945      2.136317
  Al      1.179515     -1.679923      3.790242
  H       0.474713     -1.792634      5.366988
  H       2.684618     -1.270512      3.562055
  H       1.596702     -3.631255      1.187020
  Al      0.709826     -3.513725      5.648038
  H       1.784920     -3.638021      6.809825
  H       1.453640     -3.495794      4.122644
  H      -0.730030     -4.179533      5.549023
20
Coordinates from ORCA-job run E -1220.442279799312
  Al     -0.533703      1.012165      2.872789
  Al      0.115813     -0.473201      0.454857
  H      -0.462837     -2.097210      0.329290
  H      -0.143936      0.215410     -0.946532
  H      -1.080482     -0.030243      1.592941
  H      -1.863157      1.341655      3.678215
  H       0.374447     -0.093682      3.756789
  H       1.481527     -0.606361      1.275182
  Al      0.065712     -3.302633      1.446259
  H      -0.065927     -2.214099      2.765206
  H      -1.149052     -4.308919      1.611566
  H       0.433944      2.044283      2.136206
  Al      1.179101     -1.680062      3.790131
  H       0.474277     -1.792909      5.367020
  H       2.684026     -1.270498      3.562291
  H       1.596553     -3.630994      1.187418
  Al      0.710132     -3.513849      5.648246
  H       1.785766     -3.637643      6.809432
  H       1.453340     -3.495903      4.122595
  H      -0.729334     -4.180326      5.550089
