72
Coordinates from ORCA-job run E -3732.529560236507
  Zr         -0.38944118832088      1.95591580859732      1.77481086735844
  Zr          0.29773610270680     -1.87125613315209     -1.54575402472672
  Zr          1.56746773512072     -1.28409880371153      1.63166553530474
  Zr         -1.62608947667683      1.34249765677060     -1.40827994553931
  Zr          1.83804267133363      1.21415817597264     -1.13306470797606
  Zr         -1.89209450806572     -1.14244094995883      1.44124746541766
  O          -1.82345175253852      0.74454080841202      0.58824616788537
  O           1.80799100283297     -0.66260407661855     -0.32416462913696
  O          -0.20223164003281     -1.90224832084515      0.47215092167856
  O           0.12983289147238      2.03176925761588     -0.24117188542875
  O           0.03441139664300      0.16383771885810     -1.85405929305181
  O          -0.06136598717792     -0.07262666327672      2.14787662244867
  O          -1.89708586041018      1.84624759337023      3.40697635535503
  O          -1.81141262842151      3.62001288847747      1.32717776034505
  O           1.09901091513156      1.91563823732909      3.46924877390818
  O           1.06808377634855      3.69996625371399      1.59440939532545
  O          -1.25562333603651     -3.49128944905013     -1.36054903348350
  O          -1.11676717801505     -1.73757942837262     -3.27130734927552
  O           1.63945308587720     -3.58573487681436     -1.09476166213228
  O           1.85186250414592     -1.76170427613135     -3.13374973064400
  O           0.82838776334887     -2.61018205024309      3.25625937812566
  O           2.38572524688608      0.06736271583057      3.18724353311471
  O           2.31432879065191     -3.31399587027026      1.05084912372894
  O           3.84633438346081     -1.00097461358893      1.31307543674079
  O          -3.69604404939207      0.50475389288861     -1.24527528539836
  O          -2.56962437572015      3.24951631807457     -0.77599088782442
  O          -2.15469195749452      0.28712096801507     -3.33735451149453
  O          -0.85359902535749      2.82070625291722     -2.90042610993489
  O           1.40150429954420      2.66031661009954     -2.74906947530303
  O           2.59751417883583      2.77199466119663      0.20891065479301
  O           2.83302873143410      0.26723555141626     -2.89064156123447
  O           4.16144030163238      0.65767624001310     -0.22299519396767
  O          -3.96610838523065     -0.80612561941000      0.59424472303371
  O          -2.85409279818636     -0.19826055522940      3.21909593442001
  O          -2.59074623035563     -3.01104364014313      0.41838633380126
  O          -1.42994202594534     -2.55047415925803      3.11225191083310
  C          -2.69640912384650      0.93137248208700      3.77440025007699
  C          -2.49569700706789      3.91688888746086      0.30310997977588
  C           1.96239057986567      1.07332387523825      3.84704115355127
  C           2.09929482428760      3.75295332238198      0.87593609097638
  C          -2.13394683709933     -3.77304789725827     -0.49028600015116
  C          -1.77483060408323     -0.80938189354143     -3.84311423094721
  C           2.23980768322030     -3.95671190015931     -0.03860257122154
  C           2.68277552033692     -0.85745976094922     -3.45753572802022
  C          -0.34001566394101     -2.93179871810898      3.63651937199220
  C           4.55997334019331     -0.28650146743632      0.57532594666674
  C          -4.38989364569492     -0.07616254072255     -0.34902697907244
  C           0.32691463929430      3.14338467341737     -3.22831271117366
  H          -2.06574065201358     -0.99651946179092     -4.91751151206124
  H           2.75797325640130     -4.95715670248846     -0.07668350815623
  H           2.42410556858184      1.23959439051293      4.86187637820494
  H          -3.10170081377702      4.86601555409275      0.35373835603851
  H           3.35345019913745     -1.07691320401205     -4.33631080897049
  H           0.44047709213719      3.93484223647971     -4.02231191288013
  H           2.65536594752346      4.72967080249638      0.80341880324483
  H           5.67611308108214     -0.45212697902247      0.60737512079353
  H          -2.57456540750906     -4.81093026846514     -0.53891315273976
  H          -5.50824250935471      0.05993916006860     -0.41805423897814
  H          -3.32859857673816      1.14496309378042      4.68278356888353
  H          -0.41422211046225     -3.62345932420108      4.52319399953075
  Al          6.35269357513942      5.17483472447773      0.31537307395255
  Al          5.44354515024212      2.16777098797027     -0.73109550406861
  H           5.18826396954551      2.62109956557244      0.96514752004344
  H           4.50146430111768      2.68372233601232     -1.94572741452362
  H           6.40437432008666      3.87027727975796     -0.74378147042775
  H           4.82065897543368      5.66478485047263      0.55531129806149
  H           6.78392675257766      4.38517592889816      1.85142536594992
  H           6.83472592033946      1.33277468923158     -0.75519100395116
  Al          5.85659989774479      3.06501901236238      2.46637776219369
  H           6.87731618525646      1.90370909640870      2.94319057083074
  H           4.63004844713084      3.61146832457764      3.37771290141497
  H           7.58557359275395      6.20609288921230      0.11897744297453
