88
Coordinates from ORCA-job run E -4712.820759037848
  Zr          0.34138697525431      1.90431263754608      0.86770495972234
  Zr         -0.60687599090111     -2.37721393264183     -1.66697887593511
  Zr          1.74912171007904     -1.56220833018994      0.67925388243532
  Zr         -2.01086727331887      1.04422087456462     -1.48095553798055
  Zr          1.23979841208784      0.42788274504720     -2.35896127888759
  Zr         -1.46365183770213     -0.88618864422426      1.64465419587644
  O          -1.51521179102751      0.82396543382675      0.51742747383879
  O           1.35139690741739     -1.30903123169477     -1.30773896425971
  O          -0.34796662758121     -2.04235953809530      0.34594808739508
  O           0.13538547446893      1.62333702041464     -1.14239623593073
  O          -0.76131106683208     -0.39993354983935     -2.23786703594608
  O           0.59188055842483     -0.05371883118521      1.50223103983830
  O          -0.38048880850210      2.24973484970699      2.90878182691305
  O          -0.97384537882400      3.66504324305359      0.67304911283714
  O           2.37943287122290      1.87221967321788      1.70079731798570
  O           1.68468879216388      3.48218937542423     -0.17482248839489
  O          -2.07276003777185     -3.73882371656563     -0.67136924191092
  O          -2.52675723968214     -2.25006623639746     -2.72821683922117
  O           0.62517554923567     -4.17345060398964     -1.41991510008635
  O           0.23689232498670     -2.70257360805100     -3.65732871927423
  O           1.51968266520814     -2.52423718857982      2.64230923773713
  O           3.22285143590756     -0.22140067500113      1.62567352804398
  O           2.04553062268353     -3.70377692688157      0.27171585899431
  O           3.79309660965094     -1.66137653208621     -0.42992750788654
  O          -3.90031343450451      0.53925352741450     -0.47339743909901
  O          -2.46819304849374      3.11270728413959     -0.92912012985771
  O          -3.28931540671298     -0.12181140359882     -2.88980683911288
  O          -1.69282298354533      2.15990357630998     -3.34494991790496
  O           0.42477655370416      1.66791599937959     -3.94296979836623
  O           2.57776583789701      2.30671771286380     -1.89623145868332
  O           1.45368685355885     -0.85563558178574     -4.09220947507181
  O           3.55006818855957      0.05178095632366     -1.88628991256768
  O          -3.62224478518730     -0.26199226807988      1.62996115615712
  O          -1.54633118599127      0.39140730700214      3.44481451716739
  O          -2.72939666602058     -2.63757796497188      1.19890725143704
  O          -0.62498019598404     -2.15279088653870      3.24048188143678
  C          -1.05689537274843      1.52695629792716      3.69841119359246
  C          -1.96401184173669      3.89902710897677     -0.07419628854843
  C           3.18442885583465      0.96551864076773      2.05890050515196
  C           2.42657587653407      3.37325833721643     -1.16193629139438
  C          -2.65700078819878     -3.65471816540717      0.44205727423994
  C          -3.22835904227302     -1.32798649182679     -3.24989277388259
  C           1.54193855440519     -4.46743072369915     -0.60053608521199
  C           0.99835815307454     -2.00398013334424     -4.38617268170987
  C           0.53147351797591     -2.62863846426394      3.42444809097899
  C           4.21196563972862     -0.92549530521573     -1.33429362084328
  C          -4.27464388829647      0.31612574467636      0.72233239902997
  C          -0.69197576355885      2.24061675653942     -4.11199810183073
  H          -3.86751516313254     -1.62498713775587     -4.10362731671883
  H           1.94262915060035     -5.49740333783126     -0.65163899293806
  H           3.94385437820495      1.24457957728676      2.81360911961528
  H          -2.44209007677928      4.89179012584819      0.02721549380644
  H           1.28926863615269     -2.41558873780619     -5.36972925171278
  H          -0.79911402918572      2.86536653092662     -5.01687641719468
  H           3.03363900034178      4.24246578412355     -1.46842741254577
  H           5.23759140618844     -1.07597358072070     -1.71693925367388
  H          -3.18336452861244     -4.56330745000114      0.79493569486299
  H          -5.29646154595429      0.65591370431488      0.98229956647254
  H          -1.23717062747242      1.93387593531618      4.71166794981576
  H           0.69557384035745     -3.19361305706005      4.36178349845491
  Al          2.49186674940113     -1.32740189951522     -8.41281958112834
  Al          1.43239257702011      1.63985453807887     -7.45719326803870
  Al          4.56144514483549     -1.44020720146333     -6.09459424222373
  Al          3.90993491724112      1.53326683236425     -5.83113868964191
  Al          6.23109890079608      0.07608023302140     -4.53520103669315
  Al          4.44502576955132      1.75226599734888     -2.49354553286169
  Al          4.17233768690524      4.31735810529977     -4.38148509668022
  H           2.49977412523112     -1.62195315561406     -9.97775229584550
  H           1.55133170845125     -2.10254298466012     -7.37685642498085
  H           1.78505818513539      2.94965192222158     -8.29034427601873
  H          -0.07430634268760      1.18056718854345     -7.15663451752581
  H           2.17967163775615      0.33457208834283     -8.26401624527237
  H           4.06973489553331     -1.38023034516241     -7.82711053284881
  H           4.21308956786558     -2.94136898901795     -5.70604191985413
  H           6.05464853627700     -0.80664819168345     -6.36957027703777
  H           5.85583012907633      0.93145928251841     -3.06267562396639
  H           5.62810678821472      1.37222471040383     -5.39070348480905
  H           5.12666981319137     -1.11922630961124     -4.23108634220286
  H           7.79602030099751     -0.17612306804387     -4.46252270354532
  H           4.88479156636955      3.29586824199017     -3.23722977634496
  H           5.22000693151225      5.47378440749273     -4.70867709440508
  H           2.67725515330352      4.60939429675250     -3.88509374019157
  H           4.09908402768499      3.26784574805659     -5.67795403223520
  H           2.16638711029246      1.67048151461466     -5.94234321668532
  H           3.50556312100295     -0.21431205594273     -5.73362170839262
  H           4.23309270172443      1.53650326822022     -7.40516929228455
  H           3.60990953790386      1.41223913801119     -4.05483374160846
  H           5.08127918319964      2.14395180880815     -1.06873853937761
