68
Coordinates from ORCA-job run_pre E -3488.547128975084
  Zr         -0.01891235764771      2.03609259724217      1.29932790220507
  Zr         -0.07784447871284     -2.42086424460493     -1.16214945474528
  Zr          1.48326636904855     -1.39471431769320      1.76573095313380
  Zr         -1.52739571461173      1.00283712478461     -1.63946237165199
  Zr          1.90668832959416      0.44502642101971     -1.45573211127934
  Zr         -1.94065177577295     -0.80884692408466      1.65342524080543
  O          -1.65643646064162      0.85277272304401      0.44206505993308
  O           1.66902594135741     -1.22710560630863     -0.27614701604096
  O          -0.43583991414231     -1.99545116104422      0.83212478664078
  O           0.38918451037718      1.69700198453176     -0.73035260746196
  O          -0.08244072990737     -0.46805368786709     -1.87629980874732
  O           0.05416117229936      0.09905563101407      2.07231334245939
  O          -1.41322097202970      2.46949976281164      2.97652235445326
  O          -1.22866858772427      3.77530446799600      0.59721083583919
  O           1.51904488121161      2.10351193710172      2.97073627747404
  O           1.64198109262762      3.53596836401882      0.79823965513457
  O          -1.74648366491552     -3.83454931368396     -0.56137514813427
  O          -1.66311650476700     -2.39845767238465     -2.72583855235240
  O           1.09383409112326     -4.17336701222430     -0.44225068571269
  O           1.28926716175989     -2.88185775022345     -2.83371405482013
  O           0.64828737725218     -2.28568270091503      3.63163941408605
  O           2.50158153081281      0.05722031204611      3.09918351241229
  O           1.92434838031443     -3.57479141438802      1.58146567980479
  O           3.77683120100145     -1.47644014012577      1.38828678164435
  O          -3.65873693545910      0.47263943592285     -1.22016696065907
  O          -2.20008552489822      3.10129614568676     -1.33841692823163
  O          -2.31551127780300     -0.30178264914786     -3.32384734789553
  O          -0.72133395639287      2.04953839947420     -3.41904219066979
  O           1.49808482111196      1.58883902231930     -3.33767036637621
  O           2.91835328617642      1.86819878215976     -0.03917447636622
  O           2.56682506633444     -1.02392035636374     -3.04196914533227
  O           4.21591369786115     -0.45018630735047     -0.58408879191560
  O          -4.01411042472018     -0.26351793227577      0.90441995576932
  O          -2.61698821421242      0.57088101439638      3.27002042502345
  O          -2.97947084660314     -2.65468276597735      0.94463708811867
  O          -1.59343496680159     -1.96478591572779      3.52728422752216
  C          -2.28117122362050      1.75678624421659      3.56811873822891
  C          -1.95877530807695      3.94961988610800     -0.42420415734934
  C           2.23021233679315      1.22303467458242      3.53504134717864
  C           2.69376385835085      3.09487370835154      0.26683953223043
  C          -2.65818629570289     -3.71029605481082      0.30621857073875
  C          -2.17480193053103     -1.54172560360539     -3.52150088008669
  C           1.71048179677085     -4.40068688746388      0.64259093190908
  C           2.20522131181052     -2.18956210623085     -3.38022981440513
  C          -0.53415825142544     -2.39516304775017      4.07814414785509
  C           4.54019064561410     -1.14636553086911      0.45442446040596
  C          -4.37658736936352      0.26138133596060     -0.18728616435801
  C           0.46921327807178      2.12285872340838     -3.85149322181458
  H          -2.55826586853933     -1.94511771106795     -4.50353322350684
  H           2.11168670548890     -5.44481943377672      0.78639662696184
  H           2.69550194527776      1.50403893173386      4.52427871019562
  H          -2.44629896864215      4.96072716800516     -0.53177025439426
  H           2.75179362070623     -2.65931980540281     -4.24661869672425
  H           0.62826177345354      2.72502675119928     -4.79163166948045
  H           3.51902227962571      3.83209728837218      0.04564972480129
  H           5.61859967453321     -1.47495012895127      0.51556429317745
  H          -3.27005533724663     -4.63207769144053      0.53057743077635
  H          -5.46204290601364      0.56201086014518     -0.26635256900808
  H          -2.80712636659029      2.22729138753638      4.44749794631198
  H          -0.65666308952627     -2.92884710128020      5.06395770232586
  Al          6.12916089754088     -0.93996975324104     -4.21830001796504
  Al          5.20747571485658      0.37843291295253     -2.05410406114415
  H           5.65393284972984      0.66786781940797     -3.89955680565254
  H           3.78145711735327      1.16185108753909     -2.40907817927625
  H           5.69199245344849     -1.28330415745004     -2.55014207911604
  H           7.73940826634101     -1.05645841003765     -4.30497993163597
  H           5.09103667930732     -1.73268578596870     -5.17627737576899
  H           6.44889886830371      1.15298217965702     -1.36881909058778
