8
Coordinates from ORCA-job run E -487.913364447039
  Al      0.000000     -0.000000      2.068600
  Al      0.000000      0.000000      0.000000
  H       1.358660     -0.045440      1.033860
  H      -0.059090     -1.315350     -0.908130
  H      -1.357130      0.075740      1.034880
  H       0.057700      1.288210      3.016230
  H      -0.058610     -1.316130      2.977310
  H       0.057230      1.289280     -0.945940
8
Coordinates from ORCA-job run E -487.922516336512
  Al      0.000015     -0.000323      2.082206
  Al     -0.000047     -0.000292     -0.013508
  H       1.341982     -0.044021      1.033997
  H      -0.059852     -1.331631     -0.900363
  H      -1.340437      0.075695      1.034829
  H       0.058403      1.304050      3.009283
  H      -0.059259     -1.332276      2.969352
  H       0.057954      1.305110     -0.938985
8
Coordinates from ORCA-job run E -487.946134852188
  Al      0.000044     -0.000865      2.128802
  Al     -0.000142     -0.000753     -0.059907
  H       1.302548     -0.042384      1.034255
  H      -0.061473     -1.365837     -0.897108
  H      -1.301108      0.073926      1.034742
  H       0.059881      1.338712      3.006523
  H      -0.060566     -1.366238      2.965725
  H       0.059578      1.339747     -0.936223
8
Coordinates from ORCA-job run E -487.958980922003
  Al      0.000051     -0.001130      2.164759
  Al     -0.000186     -0.000974     -0.095786
  H       1.279892     -0.041699      1.034343
  H      -0.062192     -1.381151     -0.907577
  H      -1.278521      0.072632      1.034718
  H       0.060559      1.354562      3.016845
  H      -0.061164     -1.381502      2.976070
  H       0.060322      1.355573     -0.946562
8
Coordinates from ORCA-job run E -487.972687039272
  Al      0.000053     -0.001498      2.219997
  Al     -0.000241     -0.001280     -0.150939
  H       1.245906     -0.040733      1.034419
  H      -0.063069     -1.400208     -0.927425
  H      -1.244634      0.070598      1.034705
  H       0.061428      1.374531      3.036215
  H      -0.061938     -1.400586      2.995823
  H       0.061254      1.375487     -0.965985
8
Coordinates from ORCA-job run E -487.982444534254
  Al      0.000053     -0.001990      2.295188
  Al     -0.000317     -0.001678     -0.226022
  H       1.194462     -0.039448      1.034490
  H      -0.064190     -1.425493     -0.950343
  H      -1.193354      0.067306      1.034704
  H       0.062636      1.401373      3.058069
  H      -0.063017     -1.425997      3.018682
  H       0.062488      1.402237     -0.987958
8
Coordinates from ORCA-job run E -487.984201783987
  Al      0.000056     -0.002221      2.335445
  Al     -0.000359     -0.001848     -0.266227
  H       1.165646     -0.039109      1.034502
  H      -0.064739     -1.438877     -0.960018
  H      -1.164659      0.065066      1.034720
  H       0.063330      1.416003      3.066618
  H      -0.063644     -1.439512      3.028377
  H       0.063129      1.416809     -0.996607
8
Coordinates from ORCA-job run E -487.984327016356
  Al      0.000062     -0.002263      2.347532
  Al     -0.000368     -0.001865     -0.278305
  H       1.158584     -0.039496      1.034486
  H      -0.064881     -1.443160     -0.961702
  H      -1.157660      0.064041      1.034739
  H       0.063594      1.421072      3.067371
  H      -0.063891     -1.443874      3.030101
  H       0.063320      1.421855     -0.997413
8
Coordinates from ORCA-job run E -487.984343429753
  Al      0.000067     -0.002253      2.349562
  Al     -0.000366     -0.001841     -0.280337
  H       1.159144     -0.040058      1.034468
  H      -0.064892     -1.444250     -0.960969
  H      -1.158256      0.063522      1.034753
  H       0.063697      1.422709      3.065836
  H      -0.063991     -1.445004      3.029401
  H       0.063357      1.423486     -0.995905
