92
Coordinates from ORCA-job run E -4952.474015927070
  Zr         -0.07211703362999      2.15134370383765      1.49814685548944
  Zr          0.20950474731681     -2.12052635043467     -1.29363565943420
  Zr          1.99601831710106     -0.96812324537232      1.45873062209630
  Zr         -1.84759922162015      1.01278251023110     -1.25417035024634
  Zr          1.58708418103992      1.04504014795896     -1.67975412655687
  Zr         -1.43719721314195     -1.01474361211246      1.87574092108141
  O          -1.66396607457546      0.74274738828546      0.78631015107499
  O           1.80132205124747     -0.71445805341919     -0.58851364866568
  O           0.08729854138612     -1.87024843956535      0.76185285970293
  O           0.06573048015344      1.89697083658144     -0.55851466578975
  O          -0.25394160995656     -0.18590152465758     -1.86068078837613
  O           0.39870503045593      0.21806536419829      2.06210543605596
  O          -1.35818295520623      2.25940006913826      3.31896184317805
  O          -1.54800344179241      3.75999996717940      1.02790934441345
  O           1.55000305131419      2.37233591797769      3.04840161776255
  O           1.43530719393551      3.65524219181785      0.80407312757634
  O          -1.32727774639014     -3.60554369382968     -0.58885090564703
  O          -1.43278732493205     -2.31938638792404     -2.84859598631838
  O           1.71635350619930     -3.70639960138094     -0.82714525727318
  O           1.51025285982511     -2.22230656466538     -3.10382714887871
  O           1.63629817849793     -2.13976704557582      3.31712310735401
  O           2.85684151951570      0.51167266348010      2.92384352809887
  O           2.84883685372294     -2.97484945847340      0.99878403174899
  O           4.05033769456654     -0.33675111261801      0.76652456887614
  O          -3.91626433183739      0.39456584486947     -0.55522957468885
  O          -2.67603610282895      3.03009109910444     -0.79809070560853
  O          -2.72085188349937     -0.44739758730973     -2.71529561697580
  O          -1.48044742397320      2.17729595394722     -3.12226480553532
  O           0.75450001625374      2.07402181213913     -3.46644550481679
  O           2.24884297405821      3.18295387322876     -1.27127610327056
  O           2.37728258213810     -0.14804007314890     -3.40366450319366
  O           3.72440266436282      1.04448404948611     -1.01158292280623
  O          -3.54963525684548     -1.06158253924018      1.15498093374910
  O          -2.22267655842336      0.18144566478105      3.59132585742451
  O          -2.07470329594607     -3.18520564637681      1.52128994639672
  O          -0.59889441186317     -2.04262229336563      3.66741478962639
  C          -2.07025364239574      1.39898015084068      3.92041585199367
  C          -2.41165070122112      3.88100696787173      0.10537290964151
  C           2.45365749816580      1.58837724225562      3.46749414933687
  C           1.99231093988623      3.95547913222172     -0.30200601873360
  C          -1.86750877929385     -3.93154273866375      0.52463483970864
  C          -2.32159971565794     -1.51959386746609     -3.26949926623059
  C           2.60412017424296     -3.80696532789086      0.07730498352044
  C           2.23746080121589     -1.37242453895950     -3.70274269121215
  C           0.58233590700054     -2.37848541295403      3.98487553705836
  C           4.43867745352229      0.32783686068868     -0.23884533005169
  C          -4.28277737711759     -0.31702651078085      0.42317379325285
  C          -0.42575413549357      2.41299805287892     -3.78771645811174
  H          -2.82906256736250     -1.79581763516190     -4.24004292478792
  H           3.23523336193568     -4.74170703150149      0.05224333978542
  H           2.97369954449493      1.88722287347241      4.42379276794750
  H          -3.00512506748437      4.83930752223927      0.08742770552178
  H           2.81403682851241     -1.74936675442577     -4.59600979371723
  H          -0.54849018325396      2.97644497651069     -4.75579256405887
  H           2.30824381909079      5.03276367896908     -0.42142152298710
  H           5.54420170746064      0.29935099144949     -0.46482851592037
  H          -2.20380463591806     -5.00486409179674      0.60604672686217
  H          -5.38486853422788     -0.31079452832893      0.66762198339756
  H          -2.62312280982272      1.74890158854842      4.83825902568473
  H           0.70914045498811     -2.94254221744943      4.95203344926384
  Al          3.34289440514359     -5.47489687386043     -3.73782595401820
  Al          2.97442617389762     -5.35937066694161     -6.91080681784824
  Al          2.71644115461353     -7.86705219970601     -4.89965882433573
  Al          2.34599300747013     -7.72193843510902     -1.72633980300256
  Al         -0.68568385145935     -7.83324679181254     -5.28899174484602
  Al         -0.28599583851186     -4.65152808198742     -6.31352740995377
  Al         -0.80096673918153     -6.37726663647179     -2.29001924780343
  Al         -2.98103248535604     -5.71566250228981     -4.65246992091606
  H          -4.57231904142547     -5.45806282670273     -4.75305269367406
  H          -2.45975266527550     -7.20334171974912     -5.27563521342838
  H          -2.38180708242717     -5.78994835774759     -3.09737013072652
  H          -2.00967832587802     -4.67004025274250     -5.49978438226511
  H           0.39617992994597     -3.99183928288357     -5.01192365827440
  H          -0.91507721840714     -4.13251609781777     -7.70297666820435
  H           1.39605141675958     -4.96368992444927     -7.22375089412768
  H           4.02071148257498     -5.05978357642600     -8.09956558046771
  H          -0.30196031057697     -6.41408135664385     -6.19337226412215
  H           2.87334316635177     -6.98951221053326     -6.49383660494684
  H           1.03897293510478     -8.17777303318322     -5.23090485821111
  H           3.53193479902101     -9.15898977826300     -5.41084156315047
  H           2.52375255387815     -8.51118807276440     -3.20813100247847
  H           0.73120471062839     -7.41186281542405     -1.62581672311929
  H           2.98966758733625     -8.54164084596716     -0.49553787576867
  H          -1.62045280951254     -6.94286436048371     -1.01705164254364
  H          -1.18526877496620     -9.19624170586584     -5.98825974351021
  H          -0.68676192386223     -7.59629175336441     -3.59169651789540
  H           4.03942446692753     -4.18251679516253     -3.07552768244346
  H           3.37841022480094     -4.65758736506173     -5.43053342043646
  H           3.11865205363346     -6.26584768820605     -2.05148442860662
  H           4.22442108286913     -6.83809068247096     -4.29619743517001
  H           0.11463005919017     -5.13005521897224     -2.72305836531035
  H           1.91186237570426     -6.24236191398952     -4.23027364909719
