84
Coordinates from ORCA-job run E -4464.480977662965
  Zr         -0.31871113173375      2.05965820436955      1.41402123703453
  Zr          0.43924117733543     -2.32094817228866     -1.01691848454279
  Zr          1.89771138630258     -0.92738082087924      1.79113440934822
  Zr         -1.71574276670368      0.68979033598183     -1.45434042789597
  Zr          1.76521285431304      0.85927085511295     -1.48182053106846
  Zr         -1.59676155843701     -1.11290657332201      1.83344147432077
  O          -1.73003016802966      0.54377274784674      0.61607095898803
  O           1.85789340908935     -0.79933485352312     -0.26841170039410
  O           0.09013611561834     -1.98556723955517      0.98012279951287
  O           0.10106554446376      1.72986014638691     -0.58945838022796
  O          -0.04363695993726     -0.45302278650453     -1.79938485397827
  O           0.18724264460680      0.19921744427807      2.15263499573876
  O          -1.78007765004297      2.22467191278941      3.10104701140766
  O          -1.81390910446921      3.55625657136752      0.71491937376608
  O           1.07428210059088      2.46630856630512      3.18825763529387
  O           1.19610573601141      3.64389536354034      0.88321709944720
  O          -0.80014291845337     -4.14120937579683     -0.28480602605487
  O          -1.25823269912176     -2.72010132537091     -2.43642383321590
  O           2.04114402678250     -3.76840979226682     -0.42335306460267
  O           1.71318972255293     -2.44864780339775     -2.84603935671918
  O           1.36833317718410     -1.95097888623956      3.70732788340971
  O           2.59144145214080      0.77336238566001      3.03302538764002
  O           2.78495699389959     -2.96448787152546      1.56752665644527
  O           3.99794153669071     -0.39441829259583      1.15046890612948
  O          -3.71310410777646     -0.15365402693720     -0.93103137847009
  O          -2.73314464411094      2.66648439971611     -1.16238326419498
  O          -2.33652508415900     -0.80871659036198     -3.04198274556931
  O          -1.19597572165556      1.86195095356441     -3.28043861552242
  O           1.07410258684139      1.96996927940712     -3.29756519630933
  O           2.51253715311004      2.84072470682431     -0.78793729792772
  O           2.48761355241552     -0.34791343964864     -3.20857821058365
  O           3.94612726495189      0.65267369036867     -0.88517898255845
  O          -3.78891727078649     -0.98448798024302      1.19523636094807
  O          -2.46406514055738      0.09373875895959      3.49644749933090
  O          -2.28430710164146     -3.09031508922336      1.08975703989804
  O          -0.89724690265699     -2.15610165896101      3.68064902861145
  C          -2.41648242425679      1.33781641910135      3.74737064464545
  C          -2.59705357393090      3.57220865463879     -0.28465106684037
  C           2.04674218680243      1.77821400502016      3.60624328276338
  C           2.04369252095381      3.76536377611871     -0.05056030205059
  C          -1.75266740997318     -4.11676905020474      0.54522389515337
  C          -1.94997565933098     -1.99448070611016     -3.23388261940925
  C           2.72000329381831     -3.83555872987169      0.65141092276396
  C           2.27746685489151     -1.54765838031937     -3.54739925156328
  C           0.25449074191915     -2.32916716590345      4.18586900371115
  C           4.51710413373616      0.05180570684608      0.07800179394446
  C          -4.30671069359803     -0.52204585909305      0.13889199744046
  C          -0.07854404180811      2.22398719080796     -3.76281571820179
  H          -2.25229554215518     -2.47641434170541     -4.20831469156046
  H           3.33313746404682     -4.77217313578638      0.79403187990393
  H           2.50500208791004      2.09294565087833      4.58888961745574
  H          -3.24124420338257      4.49044614738205     -0.40301095764321
  H           2.59161418396573     -1.86539913199522     -4.58124929875384
  H          -0.11578619285298      2.83833486602169     -4.70796579732939
  H           2.44763077796383      4.80302097655005     -0.23359682312039
  H           5.63182092702542     -0.09489117266891     -0.02630778718904
  H          -2.19788136538793     -5.11444559745336      0.83007093312982
  H          -5.43276744629112     -0.43779760772664      0.12617268168154
  H          -3.00607788507536      1.69168974340623      4.64122795429069
  H           0.29264758900474     -2.87922502107987      5.17010271392082
  Al          4.89663759555786     -3.94330675878241     -2.65266459774759
  Al          4.60101487947449     -4.12383073774301     -5.98645831940101
  H           4.87960240003701     -5.78975339987895     -5.73625662779857
  H           2.99172583574474     -3.88882248890947     -6.21802421637422
  H           4.96476824642789     -3.61843496454585     -4.39018606770096
  H           4.56184149288299     -2.50311086096031     -2.01607541584901
  H           3.49952419142132     -4.89688022577415     -2.77708391315773
  H           5.67384385637280     -3.51894718472061     -7.01707487119117
  Al          4.38969691895370     -7.42893256513685     -5.24121576760220
  H           3.19217429050216     -6.97278482529562     -4.13648286546620
  H           3.67105921988244     -8.01055901461496     -6.56192983905318
  H           6.14374783622190     -4.92169932474283     -2.35518568647251
  Al          2.17085993863060     -6.06006512642244     -2.95967877414704
  H           1.82672406361064     -5.12191983241783     -4.42088963049151
  H           2.42827787945141     -7.00119345540724     -1.67152167700213
  H           5.68757849940463     -7.94995616940122     -4.44083785570633
  Al          0.78714804280680     -4.54373036654330     -5.62172539872851
  H           0.79402579072396     -5.53954970378023     -6.88797828542450
  H           0.44132545932523     -2.96702826958377     -5.56195173739878
  Al         -0.51797633101199     -5.99743409915532     -3.18653587697057
  H          -1.89917767120832     -6.48956479466603     -2.53356780323637
  H           0.65821585550836     -5.14351154135451     -2.34241662689683
  H           0.68038518674320     -7.12943723284908     -3.61977005291795
  H          -0.64253234418201     -5.14675370596462     -4.65098273103583
