12
Coordinates from ORCA-job run E -732.299585278484
  Al         -0.23222295994223      1.50513263514531      2.55992741590505
  Al          0.00019944555158     -0.00051186476607     -0.06990961426788
  H           0.85745946634140     -0.92221049648596      1.07905177299160
  H          -1.08954110656927     -0.89878869473669     -0.75615715075031
  H          -0.84724861596064      0.92837613653174      1.08059550569295
  H          -1.45643676129365      2.17234152444422      3.28206318213004
  H           0.00399772475026      0.00090355227121      3.30708424323203
  H           1.08374680993126      0.89356426662548     -0.77122005876476
  Al          0.25836057710204     -1.50232031961994      2.56362103775764
  H           1.49568364325420     -2.15079189016091      3.28047445349755
  H          -1.16385102121397     -2.12419523804128      2.31469018614929
  H           1.19679279804905      2.10681038879290      2.30013902642675
