12
Coordinates from ORCA-job run E -732.298837460371
  Al     -0.229465      1.518719      2.565333
  Al      0.000121     -0.000507     -0.083536
  H       0.872783     -0.936113      1.069964
  H      -1.104267     -0.908414     -0.771134
  H      -0.863230      0.941627      1.071787
  H      -1.473542      2.184480      3.291334
  H       0.004056      0.000973      3.330927
  H       1.098729      0.903679     -0.785103
  Al      0.255690     -1.515992      2.569382
  H       1.513180     -2.162656      3.289507
  H      -1.180669     -2.143678      2.318759
  H       1.213553      2.126193      2.303140
12
Coordinates from ORCA-job run E -732.299213651132
  Al     -0.229260      1.515166      2.563521
  Al      0.000141     -0.000510     -0.079833
  H       0.869596     -0.933430      1.071708
  H      -1.100009     -0.904937     -0.765315
  H      -0.859977      0.938974      1.073513
  H      -1.468236      2.178988      3.287064
  H       0.004080      0.000974      3.325855
  H       1.094510      0.900176     -0.779298
  Al      0.255460     -1.512428      2.567530
  H       1.507787     -2.157250      3.285245
  H      -1.175770     -2.137937      2.317948
  H       1.208618      2.120525      2.302423
12
Coordinates from ORCA-job run E -732.299557774660
  Al     -0.229006      1.506475      2.559245
  Al      0.000189     -0.000514     -0.070835
  H       0.861654     -0.926653      1.076135
  H      -1.090765     -0.897627     -0.752302
  H      -0.851859      0.932279      1.077891
  H      -1.456785      2.166758      3.277865
  H       0.004137      0.000976      3.313262
  H       1.085334      0.892793     -0.766372
  Al      0.255143     -1.503703      2.563146
  H       1.496125     -2.145219      3.276073
  H      -1.165301     -2.124771      2.315771
  H       1.198074      2.107515      2.300483
12
Coordinates from ORCA-job run E -732.299566708300
  Al     -0.229219      1.505872      2.559081
  Al      0.000192     -0.000513     -0.070269
  H       0.860936     -0.925969      1.076594
  H      -1.090899     -0.897956     -0.752358
  H      -0.851114      0.931618      1.078337
  H      -1.457030      2.166879      3.278172
  H       0.004139      0.000975      3.312190
  H       1.085448      0.893102     -0.766485
  Al      0.255351     -1.503093      2.562967
  H       1.496357     -2.145344      3.276389
  H      -1.165572     -2.124478      2.315497
  H       1.198351      2.107217      2.300244
12
Coordinates from ORCA-job run E -732.299580852967
  Al     -0.230158      1.503768      2.558591
  Al      0.000205     -0.000513     -0.068356
  H       0.858227     -0.923400      1.078310
  H      -1.090933     -0.898860     -0.752746
  H      -0.848291      0.929155      1.080005
  H      -1.457455      2.167547      3.279310
  H       0.004142      0.000967      3.308196
  H       1.085399      0.893919     -0.767114
  Al      0.256272     -1.500956      2.562411
  H       1.496725     -2.146040      3.277572
  H      -1.165991     -2.123323      2.314637
  H       1.198797      2.106046      2.299544
12
Coordinates from ORCA-job run E -732.299581797825
  Al     -0.230407      1.503832      2.558732
  Al      0.000205     -0.000512     -0.068493
  H       0.858044     -0.923214      1.078430
  H      -1.090761     -0.898871     -0.753238
  H      -0.848084      0.928999      1.080115
  H      -1.457357      2.168104      3.279658
  H       0.004137      0.000964      3.307986
  H       1.085205      0.893908     -0.767662
  Al      0.256523     -1.501016      2.562540
  H       1.496621     -2.146604      3.277935
  H      -1.165780     -2.123427      2.314705
  H       1.198596      2.106147      2.299652
12
Coordinates from ORCA-job run E -732.299585152600
  Al     -0.232023      1.504747      2.559834
  Al      0.000204     -0.000510     -0.069849
  H       0.857267     -0.922379      1.078961
  H      -1.089458     -0.898705     -0.756583
  H      -0.847159      0.928367      1.080574
  H      -1.456479      2.171941      3.281878
  H       0.004095      0.000941      3.307250
  H       1.083749      0.893591     -0.771382
  Al      0.258153     -1.501904      2.563569
  H       1.495703     -2.150479      3.280250
  H      -1.164068     -2.124331      2.315318
  H       1.196956      2.107031      2.300540
12
Coordinates from ORCA-job run E -732.299585220385
  Al     -0.232101      1.504912      2.559921
  Al      0.000203     -0.000510     -0.069993
  H       0.857329     -0.922403      1.078942
  H      -1.089381     -0.898659     -0.756704
  H      -0.847207      0.928413      1.080548
  H      -1.456397      2.172168      3.281967
  H       0.004085      0.000937      3.307330
  H       1.083658      0.893531     -0.771537
  Al      0.258234     -1.502072      2.563650
  H       1.495622     -2.150700      3.280347
  H      -1.163918     -2.124402      2.315318
  H       1.196813      2.107095      2.300571
12
Coordinates from ORCA-job run E -732.299585242037
  Al     -0.232123      1.504990      2.559940
  Al      0.000203     -0.000511     -0.070018
  H       0.857372     -0.922400      1.078942
  H      -1.089389     -0.898658     -0.756642
  H      -0.847238      0.928430      1.080540
  H      -1.456384      2.172226      3.281980
  H       0.004073      0.000932      3.307341
  H       1.083655      0.893517     -0.771506
  Al      0.258258     -1.502154      2.563664
  H       1.495613     -2.150747      3.280366
  H      -1.163876     -2.124393      2.315235
  H       1.196777      2.107078      2.300517
12
Coordinates from ORCA-job run E -732.299585262161
  Al     -0.232167      1.505083      2.559950
  Al      0.000202     -0.000511     -0.070006
  H       0.857416     -0.922350      1.078971
  H      -1.089433     -0.898688     -0.756480
  H      -0.847257      0.928424      1.080551
  H      -1.456391      2.172301      3.282009
  H       0.004048      0.000922      3.307283
  H       1.083680      0.893519     -0.771411
  Al      0.258303     -1.502256      2.563664
  H       1.495626     -2.150797      3.280405
  H      -1.163840     -2.124339      2.315042
  H       1.196753      2.107003      2.300381
12
Coordinates from ORCA-job run E -732.299585276758
  Al     -0.232207      1.505137      2.559940
  Al      0.000200     -0.000512     -0.069951
  H       0.857448     -0.922267      1.079020
  H      -1.089504     -0.898746     -0.756265
  H      -0.847257      0.928396      1.080578
  H      -1.456419      2.172341      3.282040
  H       0.004017      0.000910      3.307169
  H       1.083725      0.893542     -0.771278
  Al      0.258344     -1.502320      2.563642
  H       1.495662     -2.150808      3.280445
  H      -1.163836     -2.124251      2.314807
  H       1.196766      2.106886      2.300215
12
Coordinates from ORCA-job run E -732.299585278484
  Al     -0.232223      1.505133      2.559927
  Al      0.000199     -0.000512     -0.069910
  H       0.857459     -0.922210      1.079052
  H      -1.089541     -0.898789     -0.756157
  H      -0.847249      0.928376      1.080596
  H      -1.456437      2.172342      3.282063
  H       0.003998      0.000904      3.307084
  H       1.083747      0.893564     -0.771220
  Al      0.258361     -1.502320      2.563621
  H       1.495684     -2.150792      3.280474
  H      -1.163851     -2.124195      2.314690
  H       1.196793      2.106810      2.300139
