64
Coordinates from ORCA-job run E -3244.551939397752
  Zr         -0.20659533215744      2.02651122703650      1.42845344773967
  Zr          0.32905722402404     -2.26194286011680     -1.38775244304384
  Zr          1.86705481381197     -1.13526504316438      1.54580774253250
  Zr         -1.68924967348133      0.88690159473662     -1.50551663102178
  Zr          1.78462600229650      0.93795594870151     -1.55879557509692
  Zr         -1.58838064453188     -1.12968091993538      1.66088128081063
  O          -1.73605685320083      0.63725925184000      0.57361624336396
  O           1.84344560895058     -0.84545149910966     -0.50619930818790
  O           0.01114776048625     -2.05636479184233      0.67690573492585
  O           0.14623047432821      1.74698106916741     -0.60170146136639
  O          -0.11323156699179     -0.34222375731014     -1.99419412308291
  O           0.23027064105927      0.07148679375744      1.98348578953506
  O          -1.59713996073862      2.12178468114398      3.16328768143490
  O          -1.69124127236523      3.58478055865297      0.83547073966609
  O           1.30031614865338      2.21110369064201      3.10176118821866
  O           1.27215805722372      3.61714639573232      0.89285263177976
  O          -1.63007414873680     -3.28681080394094     -0.99379583798915
  O          -1.46831773301386     -2.18457469751639     -3.43041369276045
  O           1.72872437428039     -3.85649918550604     -0.69634184258121
  O           1.86333974999714     -2.21079229821745     -3.04468709382140
  O           1.33122916784736     -2.31340459864870      3.35743817675109
  O           2.60442698198537      0.34343793613380      3.07676302743737
  O           2.77261767878201     -3.13243216991095      1.17595940961225
  O           3.99653134554376     -0.53728742651706      1.05215853040911
  O          -3.59178270244493     -0.19006048804481     -1.11980296806695
  O          -2.73950254255524      2.79810497303235     -1.01397960915758
  O          -2.40089582975395     -0.12359317321253     -3.46849932724448
  O          -1.12845853379941      2.30972769709335     -3.13258054528174
  O           1.11916013470828      2.10193112621763     -3.33509175674685
  O           2.45021301230628      3.01376288904643     -0.96060226621979
  O           2.66010207871542     -0.10732271970850     -3.29039670743427
  O           3.86723990099544      0.84574144052809     -0.75023459571127
  O          -3.78119296090707     -0.98618640973882      1.00005224501953
  O          -2.42659456252801      0.02352594737096      3.37307584038677
  O          -2.39548076346554     -3.17089866563203      1.13395030419860
  O          -0.93095211630213     -2.24610814089382      3.47481285026625
  C          -2.32038873677537      1.23881901848803      3.71869050583564
  C          -2.56175342838760      3.64469654883850     -0.08567269347291
  C           2.16064968671079      1.41760732395953      3.59046119690345
  C           2.04276236510218      3.84315037748040     -0.09366617106736
  C          -2.25824034247332     -3.74326277837790      0.01758154449927
  C          -2.15706562966143     -1.24066646242235     -3.97730225355582
  C           2.53895948075297     -3.98628763970839      0.27058247152748
  C           2.56986945930103     -1.33414464533332     -3.61638923946830
  C           0.21454241747244     -2.59478493166013      3.89189663154981
  C           4.49079182987589      0.12277951862713      0.09183546988494
  C          -4.24943338771697     -0.52340147245953     -0.07501477457589
  C          -0.01023222081488      2.57291095930286     -3.66869834359867
  H          -2.57420917947601     -1.44984612696537     -5.00536019908763
  H           3.10742024834196     -4.95814446882414      0.33082954272085
  H           2.59738180646444      1.70927182805631      4.59003005841867
  H          -3.24410411455513      4.54251258496338     -0.07984483713540
  H           3.18564364366372     -1.66499375371359     -4.50078810360525
  H          -0.02102470382193      3.29877065937984     -4.53171869763325
  H           2.42011332567485      4.90197838628890     -0.19622073332390
  H           5.61303111861530      0.08354266684792     -0.02228707028254
  H          -2.74820907217011     -4.75141559971070     -0.10596706503974
  H          -5.37047361871458     -0.40582854203115     -0.13518029547084
  H          -2.92759539195809      1.56832171769517      4.60958215197834
  H           0.24516304043602     -3.21561330309088      4.83244459028652
  Al         -1.06523961905752     -4.01556111537526     -3.89294718417171
  H          -0.58503267793521     -3.96063465807682     -5.44838114795408
  H          -2.33259680354251     -4.95895851710030     -3.49851295114198
  H           0.13876153663071     -4.03370083129475     -2.73244664733602
