20
Coordinates from ORCA-job run E -1219.982380184691
  Al         -0.50012901464692      1.02308543062400      3.02240000675890
  Al          0.31207724910517     -0.33736226466701      0.12646899755371
  H          -0.35856350141604     -1.89660489857980      0.46387971217227
  H          -0.41547812601872      0.11614187465540     -1.22145241913440
  H          -0.53851053368427      0.40214555435379      1.41301039825017
  H          -2.01073258684343      1.50882303975288      3.23874839893075
  H          -0.33791617933113     -0.48949461815583      3.76692925032057
  H           1.87451500377500     -0.38545033757015      0.45869768121191
  Al         -0.03213165950543     -3.35362871727176      1.29583516436047
  H          -0.29804079826417     -2.65880126467318      2.86608436445389
  H          -1.28462946904564     -4.31857196383437      1.05030403641529
  H           0.84380358619286      1.86761006378986      3.21059823760490
  Al          0.81364009536223     -1.84825752475205      3.88017238944168
  H           0.33299694297664     -1.88040583864864      5.54587113142562
  H           2.14420097716845     -1.18847494699157      3.30272162169698
  H           1.52822875235603     -3.68917518197740      1.21334019752633
  Al          0.96216057478367     -3.48926509805899      5.94763113809814
  H           2.19636511289364     -3.18584629599490      6.91072419221598
  H           1.44471523080141     -3.54661955491584      4.32281216860367
  H          -0.35036165665934     -4.36486745708439      6.19521333209312
