16
Coordinates from ORCA-job run E -975.980287431374
  Al         -0.06016824414197      1.26748922314811      2.80246762420096
  Al          0.36916421782168     -0.30263619330439     -0.15069052614766
  H          -0.17029336850921     -1.75282796603584      0.61380047009573
  H          -0.89023924854595      0.13840970145153     -1.02726362903156
  H           0.34406415104429      0.65574793687791      1.25375751547976
  H          -1.44153454684351      2.05528808583449      2.64663001558003
  H          -0.49911909980554     -0.24180603220112      3.47109032742668
  H           1.88390904770988     -0.45859580710399     -0.61705121763340
  Al          0.57674746091723     -3.03438598176476      1.47094206222994
  H          -0.16719662795369     -2.65934344552788      2.98957806537237
  H          -0.20055537809666     -4.37033065247172      1.09261672668614
  H           1.32090502431400      1.75496609867339      3.44741814150558
  Al          0.23008015873826     -1.58668529620982      4.27126942315361
  H          -0.78104403557581     -1.94422940415576      5.44917268980520
  H           1.80460765409261     -1.35507988215811      4.38005177716286
  H           2.13393283483437     -2.76078038505204      1.62044053411374
