72
Coordinates from ORCA-job run E -3736.430421334278
  Zr         -0.39590645022373      1.89785798991488      1.81297792772181
  Zr          0.44546549437405     -1.79721352107991     -1.45788662907452
  Zr          1.46378126497047     -1.28331131757618      1.78238861631040
  Zr         -1.48175716662434      1.45614905156356     -1.41791365170195
  Zr          1.84852825570687      1.23439536237154     -0.82105859785290
  Zr         -1.93434011547755     -1.10342982378479      1.25825888607094
  O          -1.75329185520303      0.79184421091211      0.50617757365084
  O           1.87634226174665     -0.67408003385747     -0.12406230364493
  O          -0.20386411454264     -1.91357029068353      0.46866403216918
  O           0.17199338736581      2.22979461272557     -0.18503206263742
  O           0.17197912945374      0.23482209126764     -1.70670492952462
  O          -0.18323897316541     -0.11785733508046      2.16004609589910
  O          -2.03389165154655      1.79216245214203      3.27521324794081
  O          -1.73794061993637      3.60710989232289      1.36339716716632
  O           0.74045592477570      1.72703570492430      3.77461528138831
  O           1.04107328334526      3.69801523795727      2.03233630364747
  O          -1.03845065972629     -3.47891594123866     -1.47475050689372
  O          -0.83867022218837     -1.61429528529689     -3.24557215697352
  O           1.75966601392301     -3.49761297431223     -0.98742644077951
  O           2.08190394133050     -1.62193790649262     -2.91428126408576
  O           0.56168001593731     -2.70200218984101      3.20664762853877
  O           2.00268213565861     -0.15637789687335      3.59011759513809
  O           2.27728277322508     -3.25845957026405      1.20097530028531
  O           3.74123855211656     -0.97229766629233      1.81141038556248
  O          -3.56133287321698      0.70677717893187     -1.38684384712231
  O          -2.43078472251209      3.32082275885154     -0.77249510420512
  O          -1.88019808604369      0.39976128577629     -3.34988843472209
  O          -0.62375063083772      2.87817488668256     -2.84674300619330
  O           1.60546085047875      2.67449881691060     -2.51624060234864
  O           2.19599346431643      1.93928120744126      1.31032598015306
  O           3.04934766120329      0.37646936887240     -2.49641519420713
  O           4.27510318722496      0.51976785198425      0.20837009858625
  O          -3.95888037943053     -0.62817100472606      0.40565743183488
  O          -2.96037188455986     -0.25220783391250      3.01093369886359
  O          -2.61447473806724     -2.79168771928661      0.00258211114238
  O          -1.66664253323659     -2.62557352639973      2.83447958337984
  C          -2.83887630226033      0.86875898398035      3.58265941557686
  C          -2.35875559750829      3.95564781224194      0.32279501638972
  C           1.48810449380390      0.81799817967638      4.22430355830443
  C           2.11725024207156      3.18636356646889      1.66929085408085
  C          -2.06160279615809     -3.64465762429632     -0.75897731415039
  C          -1.45325918444155     -0.67878558703540     -3.84338876113823
  C           2.29618372201602     -3.86933841815176      0.09584378896453
  C           2.95255881388408     -0.72408211992630     -3.10731735143311
  C          -0.63242490888739     -3.05767534721379      3.41895408116591
  C           4.55942064402068     -0.29978835230573      1.15488428390640
  C          -4.30914864487398      0.13253375430068     -0.53623568402381
  C           0.58669034927693      3.18148823588352     -3.06176842344286
  H          -1.65227231383697     -0.84118158410212     -4.92149940209172
  H           2.84140271009566     -4.83288973634741      0.07119804996289
  H           1.74793779178666      0.88151484307887      5.30020082396658
  H          -2.90576213484069      4.91728067101040      0.36954961248337
  H           3.70361637732264     -0.92411875212670     -3.89573004823137
  H           0.76844504512625      3.97382115480552     -3.81409615435598
  H           3.04242122615846      3.79058471839848      1.63659205099100
  H           5.63395367730106     -0.41100128413164      1.40636674517596
  H          -2.54703466198354     -4.63950529473475     -0.81043411271406
  H          -5.39756209458318      0.30987363615965     -0.64821812825963
  H          -3.51002148186433      1.06262483972969      4.44145744094699
  H          -0.78833302178213     -3.82795117986894      4.19904717284219
  Al          5.57718044220148      5.11690624831892     -0.52509377546948
  Al          5.08060740198804      1.99799372018589     -0.67407002912634
  H           5.47652816661232      2.61919978099355      0.88784514235995
  H           3.54784089542637      2.52247541729710     -0.98301555957374
  H           5.57135274366411      3.66814386712314     -1.33387158691404
  H           4.26294254537995      5.25509655999397      0.37774237092511
  H           6.85435438869457      4.75749636501113      0.60380908727957
  H           6.20800264218396      1.33011036532155     -1.56391474081235
  Al          6.78074902320842      3.41072018242257      1.63821862601662
  H           8.09150336180685      2.54332854149908      1.38897183649559
  H           6.20414761243349      3.85548826352563      3.05313575335349
  H           6.19538214781353      6.28992361656857     -1.40620703805379
