64
Coordinates from ORCA-job run E -3244.512600206308
  Zr         -0.17040781084545      2.09341146135847      1.47217967807515
  Zr          0.18824202495571     -2.05902041133745     -1.49097837362368
  Zr          1.74407689948206     -1.11785211866234      1.46993429711252
  Zr         -1.73601643020984      1.15683169982823     -1.49828802630073
  Zr          1.74263820700217      1.06053518447768     -1.57838513984521
  Zr         -1.73624618118242     -1.01239714753850      1.54552687821684
  O          -1.74841001679813      0.80936830378774      0.56342307431897
  O           1.75752154423336     -0.76171099164619     -0.58503371522789
  O          -0.12564324380061     -1.90757068357807      0.55075635448160
  O           0.13520090545180      1.93735210997509     -0.57262883759341
  O          -0.13476326915870     -0.05907055154603     -2.00974557994129
  O           0.14070993120571      0.09252363999065      1.99015195722851
  O          -1.47756256464027      2.13931092171075      3.27293045693706
  O          -1.65819381990507      3.69944011236048      1.01110077832078
  O           1.55793931494031      2.09795397821669      2.90722754768672
  O           1.21536805123006      3.82477460875456      0.97091203833163
  O          -1.21595644500777     -3.78843347905396     -1.00170171152386
  O          -1.53454749078635     -2.06682652543268     -2.93257230158424
  O           1.73294698754604     -3.61483257760732     -1.04966467246193
  O           1.47577155507512     -2.08717906978725     -3.31169537943323
  O           1.11381388894533     -2.49352782216320      3.13594138210835
  O           2.45571942903372      0.04266143815151      3.28995111458608
  O           2.71231937651761     -3.04345263826478      0.91631535175568
  O           3.73817406427884     -0.18599729343098      1.03280021540898
  O          -3.74743310212766      0.27792026361432     -1.05015979274605
  O          -2.63087003933964      3.12013941604485     -0.95356820661462
  O          -2.45937086722562     -0.02243828285413     -3.30376701647709
  O          -1.10764909939399      2.51213992477621     -3.16167627173499
  O           1.15433277317772      2.39581862735160     -3.25837273875956
  O           2.57081050828146      2.91151510575903     -0.61099374871366
  O           2.44467840693757     -0.03907927069584     -3.38985326066994
  O           3.92542195874105      0.72075863842247     -1.04370787555026
  O          -3.92402470781895     -0.65403284322533      1.01691253354506
  O          -2.44307723583561      0.08946835802996      3.35784815590656
  O          -2.57324727935822     -2.84182021827508      0.55893806748544
  O          -1.14848522329454     -2.33580754394108      3.24178505327916
  C          -2.21399006461670      1.25118897746305      3.80659114418246
  C          -2.47440835125993      3.87267022410065      0.05849216373833
  C           2.17384661230540      1.23201985080751      3.61330080826657
  C           2.11557046365611      3.87859908188212      0.08457271857734
  C          -2.13935271798905     -3.81781906839134     -0.13948322217093
  C          -2.16275059391591     -1.20646568059778     -3.63342939291400
  C           2.57424428401026     -3.77410973605127     -0.11578895239688
  C           2.20928085962350     -1.19807896798951     -3.84499589618591
  C          -0.02112396252849     -2.78174343670703      3.61828192503176
  C           4.38853957013172      0.16611508168239     -0.00667158781128
  C          -4.39099274625014     -0.08223750485379     -0.00831974503512
  C           0.02182152924466      2.83021016633561     -3.63787140579480
  H          -2.50486938388611     -1.54748334677102     -4.65434745727845
  H           3.28036597737084     -4.64863207755056     -0.20961980931725
  H           2.51814697553850      1.57324235445437      4.63333839091370
  H          -3.13009244801899      4.78902446632031      0.11071179900672
  H           2.70228592423673     -1.46901344231391     -4.82265850547201
  H           0.02532022274921      3.57350387450727     -4.48619564450828
  H           2.58062265470098      4.89068962910167     -0.10199584232100
  H           5.50135382866855     -0.02519841721452      0.01081909635889
  H          -2.65828321468222     -4.80748269455758      0.02300582715126
  H          -5.50213580374704      0.11940274713396     -0.01431646357373
  H          -2.71470954807801      1.52890481196831      4.77835423707167
  H          -0.03892514732550     -3.51527815351259      4.47806197131120
  Al          0.10945121386190     -6.28980758740407      2.17021855852369
  H           0.59446227925821     -5.19757458233382      1.08905854676494
  H          -1.41293903128873     -6.20580222899154      2.72110605319531
  H           1.12250382500946     -7.42682787855133      2.72286800604259
