28
Coordinates from ORCA-job run E -1707.303173650885
  Al          1.39923497948919     -4.09056319036490      0.59593757399381
  Al          1.69486680021008     -4.03329481411070      3.94380993072532
  Al          0.92766509575877     -0.92723074737140      1.10281540042663
  Al         -0.71678834271417     -2.16317994729352      3.38422614537304
  Al         -1.13191382576304      0.61440730228259      2.12466416713220
  Al         -0.88077800332612      0.46571140045526      5.18756181523962
  Al         -2.46632216408379     -1.93259127647919      5.99527631182400
  H           0.17100772554558     -4.96923010498536      0.15464015880093
  H           2.89114606895465     -4.27631790065883      0.11886713492322
  H           1.46914897709809     -5.49928188384901      4.47423238571933
  H           2.94901404881347     -3.11582633474337      4.21210721147524
  H           1.44837381540753     -4.05045241065929      2.27986627011362
  H           1.01066407572558     -2.47148762982101      0.36102427040034
  H           2.23754443011161     -0.18874553487667      0.66709063596394
  H          -0.58810402791887     -0.51312714527997      0.64249598773079
  H          -1.39843792587582      1.27597745886699      3.86963138544739
  H          -1.66889417634978     -0.80950419026700      2.77040796424016
  H           0.45892296211964      0.79247461364671      2.30756933468013
  H          -2.14976080591455      1.54308508226787      1.38057492825752
  H          -2.31719326865756     -0.25060515300862      5.65966438428636
  H          -4.00733349099151     -2.15741263347507      6.20857859888297
  H          -1.28013886214720     -2.23692135136396      6.99002759201243
  H          -2.01950882957614     -2.45686296752322      4.48537313283716
  H           0.33037347515688     -3.13283197634727      4.33260835432731
  H           0.75540676444681     -1.55837797840480      2.61515735283354
  H          -1.15848403115132     -3.16563542579180      2.23885441851139
  H          -0.13496561099982     -0.87362005350257      4.59610732018875
  H          -0.16938585336801      1.26918479265871      6.32855983365192
