72
-11.5243386760
Zr -0.04879809836352861502 2.08924481038371112618 1.58260912639894146814
Zr 0.33081089007315800377 -2.11764696354258408206 -1.56812152596044551700
Zr 1.75667943798027281765 -1.40416418455473790416 1.45540854298284361157
Zr -1.49702272672521941033 1.39103031036409330312 -1.44233509474390575456
Zr 1.83632163386917812709 0.95870298136909304354 -1.71768020641316199182
Zr -1.57705454815262569035 -0.97710076436942794320 1.71655757350017168505
O  -1.62692989817326738589 0.93105465107085327858 0.67901044572205349059
O  1.90403861175883704071 -0.94830773321394978836 -0.67155861618679624225
O  -0.04582384787588427572 -1.71917209436178208826 0.42871826078081542999
O  0.30846985453485836759 1.71201590626189847910 -0.42925901894319634655
O  0.02646139027562198834 -0.07162643032577407920 -1.83606178354696858435
O  0.23640970839117125823 0.04944910440755392184 1.84636565775425731672
O  -1.16701938661640336470 2.03515336433673788008 3.21111255318640953504
O  -1.17840661964662185568 3.63203549527703817290 1.10118923622611419866
O  1.46245256028034642526 1.78902594157730243651 2.96733941178575655329
O  1.44203977224223733877 3.35763471073915775733 0.91003069112908596683
O  -1.10428130985012051823 -3.43843274831927558921 -0.87329027644738455027
O  -1.23871581578287925929 -1.83600927901159738376 -2.88559982713180440683
O  1.50598183037258337436 -3.62967388933286105868 -1.09861524685732825368
O  1.37272316826124618494 -2.03551788280011214383 -3.24167269004001434851
O  1.02973659199454847801 -2.80247583962555868453 2.67991369543947621779
O  2.08276751456992093026 -0.45982457712880064893 3.27725392721734820611
O  2.75789291643483025496 -2.95223759710250410748 0.74779708050135440534
O  3.45432979886510960199 -0.37424077145609047079 1.22807754019147208346
O  -3.24969361029304293353 0.44993341645524076444 -1.17631319710746695684
O  -2.46606187541045152045 2.95887106943858535502 -0.72144062121319374459
O  -1.86205127914267487554 0.40587467112773573108 -3.22745835789506729796
O  -0.78561548104047962404 2.76272826475931720935 -2.69919439053519472083
O  1.18750297462535692183 1.76469919419542087269 -3.42318779652336147024
O  2.15849668541246053621 2.96642901683620907605 -1.29574930066162630204
O  2.80463903486391741282 -0.21296603539333691657 -2.98781843667024027411
O  3.52262368570994244266 0.99619612905749332921 -0.66224809339855117418
O  -3.27065273629976438485 -0.99014213092464575805 0.66339253987800761436
O  -2.57164363732200662582 0.18859725544973449107 2.97188108057019606534
O  -1.90081200243115433501 -2.97913561407793014979 1.29138637900523289836
O  -0.92929407679155684452 -1.78942622867987277679 3.42084402767393491729
C  -2.17779458724549890292 1.28781853827883518981 3.54322597163574748436
C  -2.13070019609812133510 3.77856244187722722927 0.22922721864248454815
C  2.02372047426793422176 0.79775737669830859566 3.59221369495264575278
C  2.05914753576460851647 3.64621087636193985659 -0.19536084253384783382
C  -1.76851187901378503753 -3.68814165615990452451 0.21342579061894745296
C  -1.82000560860337623481 -0.85895096845956797615 -3.51414700822336678598
C  2.42163822185289223654 -3.78694952707302512351 -0.18992326698855291345
C  2.36025835089092783647 -1.26995791065191276914 -3.60192344806475661656
C  0.04851788706969908938 -2.64362055002147089411 3.52159715847607523997
C  3.99440870094091771136 0.49446182314028963578 0.43401921358567774334
C  -3.80168187373939137075 -0.37595475048808196794 -0.34548500503025042496
C  0.20198652099226008239 2.60848557843118200594 -3.53367694079342120617
H  -2.35170874234557025773 -1.14428495432567411960 -4.41708277841814123121
H  2.97159017331839514497 -4.72841492473305358146 -0.21853252209072593359
H  2.51912629627348128025 1.06215941641502964465 4.52161843877708236050
H  -2.71733391355681952462 4.69457869079097278586 0.30499352309801347483
H  2.87573815058905069009 -1.54840398085026254016 -4.52265510990114005807
H  0.20402976398883135301 3.25239823687459628232 -4.41623701570665083693
H  2.56898520217676340494 4.60442995621433848186 -0.19994155650759443121
H  4.97596026442958905278 0.85350890017204017468 0.73016333695330715159
H  -2.28705070037455149290 -4.64141674650278535097 0.22453570972674136152
H  -4.84996945345714269848 -0.59425648466304636930 -0.52795492917224218221
H  -2.76412076062081002448 1.62265827575024723650 4.39986133258708633775
H  0.04542904263315126340 -3.29195169323103309367 4.40108843273837280208
Al 6.05789338312834679812 -2.44953086554051413515 -0.17485285691870558478
Al 5.14084254307429944220 -3.35473689641460826039 -2.58503422644485603143
H  5.13605928264258526639 -1.83163334649081432914 -3.27777282126824109909
H  6.44645540948560746841 -4.12098055272544527838 -3.13588248483078135820
H  5.08927303032109623615 -3.58383478997573501346 -0.92949704804189781093
H  7.57758876002961745399 -2.98206805192502466539 -0.22215397280108786782
H  6.04922312462157574231 -0.85922781941641790393 -0.68838293265469507887
H  3.60274814716889402177 -3.71465315280416685795 -2.88529033485121377822
Al 6.07558193185206274478 -0.79743422071102887383 -2.35881312322524383518
H  5.22005119610138113018 0.55093947574640722564 -2.55907900944395283460
H  7.60412945280696117578 -0.97352337405743294418 -2.83581202635050377836
H  5.22141576074949576025 -2.26773150761776820517 1.18740723958031879626
