68
Coordinates from ORCA-job run E -3488.527627068840
  Zr         -0.33192276437189      2.00929800751556      1.44159595020601
  Zr          0.15054083034755     -2.06744509335426     -1.61204929372905
  Zr          1.54819626376049     -1.21229158867351      1.47765085201184
  Zr         -1.75254489944498      1.14246808834285     -1.64225195500286
  Zr          1.72176693959556      1.02760359923800     -1.53853974836330
  Zr         -1.92286912450288     -1.07164481454874      1.36031903225738
  O          -1.87702665868888      0.75223526074705      0.39600822522327
  O           1.68546169341565     -0.79602607785485     -0.55260218565726
  O          -0.30507571212690     -1.96283971977533      0.40528806244501
  O           0.10370911679871      1.89453460011951     -0.57947859360961
  O          -0.13915705255544     -0.07357404835570     -2.07916295283423
  O          -0.06102180128925      0.00492747540552      1.90918862257231
  O          -1.84486138988229      2.02515057413287      3.07607288984576
  O          -1.68319092984339      3.69874855477884      0.89996533411666
  O           1.04940309038181      1.96558382487799      3.23828222934318
  O           1.30957993525442      3.49541392342396      1.14451872880336
  O          -1.46223018645730     -3.60155753781956     -1.32520499124936
  O          -1.24150628531131     -2.05131366400455     -3.40583558166441
  O           1.51467255655617     -3.74999555826469     -1.07471630060555
  O           1.66131045380001     -2.09420770077744     -3.25891514856163
  O           0.81850291431762     -2.61236513148388      3.06793794931356
  O           2.13311505350425     -0.04477931321767      3.33176672190190
  O           2.42746632962710     -3.18504216324495      0.92781124583572
  O           3.59913981268707     -0.39296639286643      1.20798524546318
  O          -3.80836537114029      0.34853716163610     -1.31917989643516
  O          -2.60532188882013      3.12818746472646     -1.09759274709844
  O          -2.37196553126287     -0.06637139661506     -3.44709342310695
  O          -1.04951782435715      2.50471506481890     -3.27002753529291
  O           1.21581458722111      2.33459322069497     -3.27807795273944
  O           2.50767881615718      2.99003615999267     -0.72461544863498
  O           2.61340206038993     -0.03294030888677     -3.28582388566397
  O           3.83747058768644      0.74055012742437     -0.75224652874128
  O          -4.07330789136657     -0.70151487305578      0.68578951457460
  O          -2.75675053037694     -0.05270648241989      3.18230459847470
  O          -2.76273324447440     -2.93734049261745      0.41989995869741
  O          -1.44579344647076     -2.44868017409730      3.05713251541641
  C          -2.60098096815347      1.14406821631758      3.58361551301149
  C          -2.44269732431583      3.89285982580982     -0.09812511590731
  C           1.73421812729729      1.06167403786346      3.81181644553574
  C           2.11600267388369      3.76511484252940      0.19823372971500
  C          -2.33902619653564     -3.78455093806787     -0.42661803455272
  C          -1.96415468318723     -1.15913827461981     -3.95016039896570
  C           2.27157055226164     -3.94626130487652     -0.07554571262139
  C           2.45186887961424     -1.21562263333221     -3.71810093736016
  C          -0.34139448442365     -2.91560591250021      3.47921239556470
  C           4.27496618088481      0.09528753564642      0.24346060528971
  C          -4.49406335527787     -0.08022959592531     -0.33189613166434
  C           0.10822542331549      2.77747012447030     -3.71145665666711
  H          -2.29921571872419     -1.37134435406617     -5.00778846083009
  H           2.87117228380460     -4.90180339188098     -0.07969416864778
  H           2.03382978445679      1.27406757121558      4.88035437354230
  H          -3.03779603252293      4.85124107971765     -0.09649570029896
  H           3.07840769757511     -1.51663045185121     -4.60644375685718
  H           0.15809914456547      3.49048867313709     -4.58408440066920
  H           2.54736733068636      4.80839412143202      0.19500644388739
  H           5.39326404603283     -0.04939972655335      0.29885501207303
  H          -2.81230297721391     -4.80871098702813     -0.39018286872910
  H          -5.60696891688715      0.10249528720943     -0.38635447431860
  H          -3.18778267741147      1.45099892595652      4.49605754687621
  H          -0.39965667004653     -3.67069545086116      4.31452388027580
  Al         -2.58411033373488     -1.48809287892651      6.41624387744277
  Al         -0.08544253468935     -0.81883613686739      7.02325681867950
  H          -1.13530826583127     -0.92343638746196      5.60369260082667
  H           0.22577119880301      0.74211679942651      7.27945842309575
  H          -1.55064824124454     -1.29674804965031      7.87998864255053
  H          -2.77020317989118     -3.07142105162026      6.19702752913116
  H          -3.67897132517363     -0.30718284018244      6.47116981575507
  H           0.92620970993609     -2.07127363266755      7.03302012998192
