80
Coordinates from ORCA-job run E -4220.506338413110
  Zr         -0.15839986535459      1.87427875281880      1.87734766701912
  Zr          0.06143753608094     -1.88060979413100     -1.57453882045318
  Zr          1.66205241249007     -1.37075499461019      1.47035746181584
  Zr         -1.72420911636339      1.39078875323259     -1.16524745592043
  Zr          1.73936442991273      1.13930379754745     -1.27617920115675
  Zr         -1.80811802349558     -1.16715707336670      1.59631155590226
  O          -1.75364387890736      0.76511725730819      0.82566477796974
  O           1.69519275810959     -0.78423223224453     -0.53116457137925
  O          -0.23555920204755     -1.95514625182345      0.47788001912081
  O           0.19091471231220      1.99786749359953     -0.14897661130041
  O          -0.17268448955707      0.18691058153244     -1.81858518868691
  O           0.11427684391046     -0.16834031792046      2.16177844994867
  O          -1.46867810425335      1.72379403292453      3.65625347244827
  O          -1.56065516099747      3.57033962016600      1.61441198810892
  O           1.60953661307595      1.72311606225723      3.21887479240649
  O           1.36597290485906      3.76482480377016      1.56201110207126
  O          -1.40637922920564     -3.58408683271440     -1.27058901344876
  O          -1.63823624389528     -1.63169907809979     -3.00330268864725
  O           1.47579787736570     -3.58918107894431     -1.33660529952471
  O           1.35119800632678     -1.73133206369259     -3.38245781912940
  O           1.02053979296723     -2.86920893998328      2.98940386388714
  O           2.45572240102224     -0.38513838743822      3.36711525940811
  O           2.46738095261786     -3.29019732668714      0.68394003113307
  O           3.72416111496946     -0.57196231131591      1.09688217304100
  O          -3.76863601607212      0.54779478767417     -0.84286062602029
  O          -2.59083962528609      3.27999143215615     -0.37710691362641
  O          -2.46907541142976      0.48618292946127     -3.10957795810054
  O          -1.02527220897031      2.93125044164930     -2.62229322569351
  O           1.23503886353345      2.76311784196671     -2.69904196636343
  O           2.70176608058551      2.73401470544545      0.04346275141363
  O           2.37273588227823      0.29054078124472     -3.23531486683590
  O           3.91343636324189      0.61889406619021     -0.83703402292062
  O          -3.96293367933004     -0.67809343677387      1.06624364746289
  O          -2.50840572286459     -0.28796419870363      3.52216655950609
  O          -2.69709545419797     -2.88475394183880      0.47052873469894
  O          -1.23991705070881     -2.69971525279958      3.10565973175319
  C          -2.24513652955798      0.81561142172337      4.08800916833870
  C          -2.38786369834739      3.90432569655885      0.70906027864926
  C           2.23346669617004      0.77383616960898      3.81085498032324
  C           2.38091036843002      3.71211091976946      0.76358568465173
  C          -2.29862572197158     -3.73953791754947     -0.38734142885175
  C          -2.24159327854375     -0.66516784051371     -3.57937572333287
  C           2.27758546724971     -3.91053702616847     -0.40825813012986
  C           2.10746844528789     -0.80693017050637     -3.81359899806424
  C          -0.11877049522870     -3.19185869638874      3.44348777167369
  C           4.36816782024759     -0.09405131441193      0.10419657384329
  C          -4.41872729903401      0.04012653100246      0.13107158974241
  C           0.12032952138372      3.28996193029341     -3.02417346831624
  H          -2.62798877259537     -0.87024173784437     -4.61989499556695
  H           2.88601459920365     -4.84646078765943     -0.56766897173075
  H           2.63954693921523      1.01541508865574      4.83556175772776
  H          -2.98737029941756      4.83980003665171      0.89033884626602
  H           2.59458558229325     -0.97888174628992     -4.81574900330110
  H           0.15981560759106      4.15924066604765     -3.73952157936908
  H           3.03679188495366      4.62667927403812      0.74345926693263
  H           5.47331099236714     -0.32278774267397      0.07360419340746
  H          -2.81484686793847     -4.74324218991228     -0.36460311866619
  H          -5.52879170744871      0.24423531515901      0.14515176100952
  H          -2.75142530884333      1.01379944103462      5.07545771374843
  H          -0.13883592678604     -4.00027562261707      4.22919267883061
  Al         -1.50060221531879      9.50459793299083      1.27149504749142
  Al         -1.22037333390901      7.53141560841205      3.66734362817102
  H           0.36851479750514      7.23496823693772      3.18238806270395
  H          -1.34766607911260      7.80225140713539      5.25835200326238
  H          -1.29170352626811      9.15269916844628      2.95870844933990
  H          -0.76549614103119     10.92323254192742      1.01679285260297
  H          -0.39793285067457      8.30381881873000      0.68931451818157
  H          -2.24036341528512      6.64432429104921      2.76341407797985
  Al          0.93307400731387      5.52992135694840      2.61360605663431
  H           0.02497766138152      5.94244517670054      1.13309919442524
  H           2.42708712697771      6.15520713158088      2.47501838860183
  H          -2.99273263007371      9.10845802852078      0.79342430770495
  Al         -0.11506714138609      6.86396092847819     -0.28349254788944
  H           1.22468383150355      7.81479042787216     -0.94876120516839
  H          -1.45025456250609      6.65816040890643     -1.15546931856458
  H           0.16838348180838      4.72858972957525      3.79249748371839
  Al          2.06704493820130      6.51198530392916     -1.81652265680228
  H           1.69110479098297      6.69412098457998     -3.37681164725031
  H           0.93050123279034      5.46928824862198     -1.07249698455061
  H           3.52593273332262      6.35815108217637     -1.14346301780746
