28
Coordinates from ORCA-job run E -1708.648494001513
  Al          1.56016076874781     -4.03529049791472      0.60245051929561
  Al          1.62046762867581     -4.02760574600109      3.81896331236460
  Al          0.86675177404050     -0.95709551166914      1.13460915190390
  Al         -0.83896882069068     -2.21435429657104      3.39076226994975
  Al         -1.09486804986818      0.60120003404059      2.15023388044253
  Al         -0.83429112226818      0.41818792265141      5.19126304060223
  Al         -2.46063787531373     -1.83818221579682      6.05682835422235
  H           0.73112916202576     -5.10830388536987     -0.23064774862347
  H           3.14370375841611     -3.86202678621685      0.59975551850130
  H           1.65341038306356     -5.46902119003142      4.49437268446534
  H           2.79160178272167     -2.95022662854243      3.85212407349713
  H           1.06636621393844     -4.27594141535389      2.22400316762585
  H           0.84357026016888     -2.52574958758991      0.32876534688459
  H           2.21332022695575     -0.29625931721894      0.63332744102404
  H          -0.67415714097426     -0.53967095707739      0.65623440927221
  H          -1.24052349467795      1.33020274125040      3.86972496174777
  H          -1.76466514797664     -0.77461276693742      2.83028692217815
  H           0.54333264098301      0.63658714311012      2.29189902592536
  H          -2.01631182249060      1.64856128827045      1.40448562435422
  H          -2.38124024496407     -0.16256642366022      5.57889874927930
  H          -3.98605959666861     -2.05729551171398      6.43925939275285
  H          -1.17471269218203     -2.01659814572401      6.98425353317237
  H          -2.14353974632111     -2.49999058977800      4.54844021282279
  H           0.18568729114588     -3.26662363621146      4.33633771202230
  H           0.68358917745353     -1.69186416752118      2.62457844842715
  H          -1.40443304918222     -3.17069034000945      2.24350369866930
  H          -0.14569039011693     -0.97475383062291      4.60554386817739
  H          -0.08763187464133      1.16772431820957      6.36747242904249
