28
Coordinates from ORCA-job run E -1708.648370877563
  Al      1.557377     -4.049685      0.608947
  Al      1.624427     -4.007173      3.806389
  Al      0.878389     -0.972874      1.136341
  Al     -0.852223     -2.225910      3.377581
  Al     -1.082086      0.600548      2.148504
  Al     -0.830180      0.405441      5.196395
  Al     -2.458849     -1.840276      6.059167
  H       0.737603     -5.113927     -0.240222
  H       3.138020     -3.865320      0.644982
  H       1.699783     -5.438515      4.495591
  H       2.753017     -2.886436      3.812228
  H       1.036186     -4.285570      2.225601
  H       0.842438     -2.534100      0.327061
  H       2.222265     -0.305282      0.642258
  H      -0.658642     -0.532843      0.657738
  H      -1.239905      1.324419      3.879911
  H      -1.767080     -0.770387      2.826262
  H       0.553113      0.631217      2.310326
  H      -1.995973      1.658246      1.409853
  H      -2.387666     -0.163099      5.574145
  H      -3.977216     -2.061140      6.462929
  H      -1.154747     -2.003975      6.963302
  H      -2.159143     -2.498470      4.544601
  H       0.167179     -3.276489      4.328846
  H       0.674584     -1.700333      2.625062
  H      -1.427087     -3.170217      2.229579
  H      -0.150065     -0.984303      4.599337
  H      -0.088159      1.154193      6.375017
28
Coordinates from ORCA-job run E -1708.648391323050
  Al      1.557674     -4.048519      0.609390
  Al      1.623357     -4.007367      3.806822
  Al      0.877621     -0.972320      1.136385
  Al     -0.852479     -2.225221      3.378139
  Al     -1.082482      0.600487      2.148946
  Al     -0.830312      0.405902      5.195906
  Al     -2.458410     -1.839650      6.058726
  H       0.738636     -5.113739     -0.240173
  H       3.138770     -3.864562      0.644624
  H       1.698294     -5.439502      4.495473
  H       2.754408     -2.888767      3.813443
  H       1.036451     -4.284941      2.225487
  H       0.842513     -2.534216      0.327247
  H       2.222136     -0.304944      0.642200
  H      -0.659286     -0.533314      0.657735
  H      -1.239577      1.324497      3.879059
  H      -1.766947     -0.770659      2.826709
  H       0.552971      0.630831      2.309357
  H      -1.996846      1.657917      1.409657
  H      -2.387130     -0.163149      5.574434
  H      -3.977033     -2.061356      6.462627
  H      -1.154600     -2.004912      6.963452
  H      -2.158535     -2.497985      4.544396
  H       0.167412     -3.276386      4.329056
  H       0.674114     -1.700130      2.625075
  H      -1.427626     -3.170338      2.229730
  H      -0.150368     -0.984233      4.599142
  H      -0.087366      1.154317      6.374685
28
Coordinates from ORCA-job run E -1708.648452877077
  Al      1.560085     -4.041260      0.611769
  Al      1.616776     -4.009188      3.809520
  Al      0.872600     -0.968526      1.136438
  Al     -0.854004     -2.220860      3.381788
  Al     -1.085144      0.600320      2.151673
  Al     -0.831087      0.409135      5.192965
  Al     -2.455961     -1.835808      6.056427
  H       0.746183     -5.112531     -0.239828
  H       3.143533     -3.860022      0.641599
  H       1.688551     -5.445896      4.494329
  H       2.763431     -2.904788      3.821478
  H       1.038788     -4.281354      2.224610
  H       0.843048     -2.534356      0.328110
  H       2.220663     -0.303065      0.641685
  H      -0.663832     -0.536268      0.657467
  H      -1.237458      1.325312      3.873826
  H      -1.766366     -0.772086      2.829189
  H       0.551880      0.628522      2.302930
  H      -2.002136      1.655577      1.408487
  H      -2.383785     -0.163066      5.576516
  H      -3.975784     -2.062415      6.460732
  H      -1.154623     -2.010782      6.965010
  H      -2.155015     -2.495238      4.543591
  H       0.168776     -3.275726      4.330277
  H       0.671285     -1.698982      2.624880
  H      -1.430261     -3.170669      2.231702
  H      -0.152138     -0.983460      4.598378
  H      -0.082648      1.155221      6.372185
28
Coordinates from ORCA-job run E -1708.648459167301
  Al      1.560957     -4.040281      0.611705
  Al      1.615970     -4.010060      3.809894
  Al      0.871680     -0.967687      1.136218
  Al     -0.854144     -2.220207      3.382452
  Al     -1.085719      0.600486      2.152001
  Al     -0.831143      0.409911      5.192674
  Al     -2.455907     -1.835347      6.056562
  H       0.748162     -5.112384     -0.239825
  H       3.144376     -3.859502      0.640419
  H       1.686697     -5.447147      4.493862
  H       2.765085     -2.908260      3.823071
  H       1.039779     -4.281191      2.224298
  H       0.843203     -2.533887      0.327938
  H       2.219925     -0.302957      0.641415
  H      -0.664960     -0.536694      0.657172
  H      -1.237090      1.325751      3.873203
  H      -1.766539     -0.772055      2.829224
  H       0.551535      0.628331      2.301705
  H      -2.002796      1.655067      1.408316
  H      -2.383320     -0.162681      5.577093
  H      -3.975655     -2.062241      6.460475
  H      -1.155447     -2.011578      6.965918
  H      -2.154791     -2.495147      4.543956
  H       0.168904     -3.275604      4.330380
  H       0.670998     -1.698941      2.624585
  H      -1.429995     -3.170454      2.232805
  H      -0.152249     -0.983054      4.598684
  H      -0.082154      1.155554      6.371532
28
Coordinates from ORCA-job run E -1708.648476706568
  Al      1.565176     -4.036984      0.610410
  Al      1.613551     -4.014562      3.811189
  Al      0.868032     -0.964100      1.134930
  Al     -0.854310     -2.217926      3.385118
  Al     -1.088218      0.601470      2.152953
  Al     -0.831179      0.413292      5.191973
  Al     -2.456419     -1.834040      6.058174
  H       0.756702     -5.111973     -0.240030
  H       3.147838     -3.857751      0.634370
  H       1.678908     -5.452519      4.491730
  H       2.771599     -2.922823      3.829824
  H       1.044854     -4.281350      2.222730
  H       0.843973     -2.531262      0.326639
  H       2.216438     -0.302873      0.639920
  H      -0.669945     -0.538203      0.655568
  H      -1.235718      1.328002      3.871379
  H      -1.767753     -0.771516      2.828604
  H       0.549812      0.628086      2.296796
  H      -2.005062      1.653061      1.407539
  H      -2.381692     -0.160553      5.579743
  H      -3.975705     -2.060695      6.459514
  H      -1.160134     -2.014105      6.970974
  H      -2.154563     -2.495628      4.546415
  H       0.169345     -3.275098      4.330598
  H       0.670363     -1.699122      2.622902
  H      -1.427572     -3.169476      2.238266
  H      -0.152225     -0.981022      4.600695
  H      -0.080735      1.157409      6.368807
28
Coordinates from ORCA-job run E -1708.648479190437
  Al      1.566113     -4.036698      0.609632
  Al      1.613588     -4.015769      3.811332
  Al      0.867473     -0.963442      1.134560
  Al     -0.854029     -2.217745      3.385576
  Al     -1.088760      0.601727      2.152907
  Al     -0.831075      0.413891      5.192066
  Al     -2.456820     -1.834154      6.058936
  H       0.757914     -5.112009     -0.240228
  H       3.148541     -3.857394      0.632632
  H       1.677208     -5.453743      4.491456
  H       2.772553     -2.925189      3.831256
  H       1.046253     -4.281652      2.222293
  H       0.844205     -2.530642      0.326182
  H       2.215894     -0.302941      0.639426
  H      -0.670899     -0.538369      0.655150
  H      -1.235600      1.328540      3.871417
  H      -1.768177     -0.771368      2.828181
  H       0.549310      0.628367      2.296069
  H      -2.005438      1.652894      1.407242
  H      -2.381484     -0.160048      5.580296
  H      -3.976280     -2.059895      6.459247
  H      -1.161409     -2.014101      6.972657
  H      -2.154698     -2.496150      4.547290
  H       0.169541     -3.274969      4.330573
  H       0.670572     -1.699320      2.622399
  H      -1.426552     -3.169598      2.239374
  H      -0.151935     -0.980595      4.601318
  H      -0.080648      1.158111      6.368493
28
Coordinates from ORCA-job run E -1708.648482786715
  Al      1.567513     -4.036329      0.608021
  Al      1.613978     -4.017874      3.811563
  Al      0.866664     -0.962442      1.133971
  Al     -0.853213     -2.217607      3.386329
  Al     -1.089731      0.602082      2.152687
  Al     -0.830823      0.414695      5.192289
  Al     -2.457555     -1.834626      6.060327
  H       0.758914     -5.112111     -0.240621
  H       3.149755     -3.856474      0.629351
  H       1.673939     -5.456018      4.491347
  H       2.773837     -2.928380      3.833868
  H       1.048822     -4.282073      2.221506
  H       0.844650     -2.529800      0.325437
  H       2.215412     -0.302999      0.638486
  H      -0.672310     -0.538592      0.654519
  H      -1.235574      1.329337      3.871674
  H      -1.768902     -0.771330      2.827439
  H       0.548321      0.629087      2.295116
  H      -2.006268      1.652887      1.406551
  H      -2.381094     -0.159400      5.581123
  H      -3.977855     -2.058127      6.458460
  H      -1.163469     -2.013737      6.975910
  H      -2.154732     -2.497248      4.548866
  H       0.170184     -3.274667      4.330559
  H       0.671181     -1.699704      2.621523
  H      -1.424608     -3.170371      2.240845
  H      -0.151222     -0.980030      4.602308
  H      -0.080456      1.159588      6.368275
28
Coordinates from ORCA-job run E -1708.648485343087
  Al      1.568441     -4.035855      0.606631
  Al      1.614350     -4.019616      3.811855
  Al      0.865967     -0.961628      1.133590
  Al     -0.852271     -2.217454      3.387042
  Al     -1.090655      0.602250      2.152503
  Al     -0.830597      0.415207      5.192377
  Al     -2.458045     -1.835107      6.061308
  H       0.758883     -5.112120     -0.240819
  H       3.150768     -3.855298      0.626382
  H       1.670596     -5.458146      4.491530
  H       2.774876     -2.930754      3.836390
  H       1.051132     -4.282120      2.220869
  H       0.845028     -2.529328      0.324988
  H       2.215296     -0.302937      0.637705
  H      -0.673369     -0.538813      0.654146
  H      -1.235655      1.329823      3.871812
  H      -1.769401     -0.771594      2.826996
  H       0.547382      0.629776      2.294404
  H      -2.007281      1.652971      1.405873
  H      -2.380594     -0.159162      5.581687
  H      -3.979484     -2.056402      6.457294
  H      -1.164992     -2.013417      6.978724
  H      -2.154338     -2.498145      4.550073
  H       0.171100     -3.274285      4.330649
  H       0.671797     -1.699946      2.620849
  H      -1.422933     -3.171403      2.241756
  H      -0.150517     -0.979714      4.602938
  H      -0.080125      1.160959      6.368181
28
Coordinates from ORCA-job run E -1708.648487284393
  Al      1.568891     -4.035240      0.605533
  Al      1.614665     -4.021023      3.812245
  Al      0.865333     -0.960951      1.133431
  Al     -0.851215     -2.217201      3.387742
  Al     -1.091558      0.602232      2.152389
  Al     -0.830426      0.415461      5.192291
  Al     -2.458271     -1.835542      6.061784
  H       0.757963     -5.111979     -0.240660
  H       3.151461     -3.853962      0.623730
  H       1.667149     -5.460066      4.491892
  H       2.775819     -2.932637      3.838833
  H       1.053237     -4.281777      2.220428
  H       0.845292     -2.529130      0.324881
  H       2.215323     -0.302781      0.637139
  H      -0.674136     -0.539033      0.654046
  H      -1.235824      1.329989      3.871752
  H      -1.769640     -0.772132      2.826899
  H       0.546508      0.630388      2.293862
  H      -2.008436      1.653000      1.405319
  H      -2.379964     -0.159335      5.581980
  H      -3.980957     -2.054789      6.455646
  H      -1.166073     -2.013307      6.980911
  H      -2.153468     -2.498766      4.550848
  H       0.172307     -3.273784      4.330867
  H       0.672396     -1.699976      2.620409
  H      -1.421454     -3.172445      2.242320
  H      -0.149840     -0.979584      4.603205
  H      -0.079722      1.162112      6.368009
28
Coordinates from ORCA-job run E -1708.648488371819
  Al      1.568768     -4.034791      0.605082
  Al      1.614873     -4.021689      3.812588
  Al      0.864988     -0.960610      1.133508
  Al     -0.850423     -2.216929      3.388176
  Al     -1.092127      0.602084      2.152366
  Al     -0.830387      0.415432      5.192102
  Al     -2.458233     -1.835779      6.061636
  H       0.756693     -5.111747     -0.240146
  H       3.151504     -3.853132      0.622273
  H       1.664915     -5.461057      4.492188
  H       2.776433     -2.933621      3.840286
  H       1.054483     -4.281281      2.220354
  H       0.845323     -2.529121      0.325108
  H       2.215279     -0.302622      0.636981
  H      -0.674413     -0.539141      0.654208
  H      -1.236020      1.329837      3.871548
  H      -1.769562     -0.772647      2.827122
  H       0.546012      0.630722      2.293648
  H      -2.009220      1.652885      1.405159
  H      -2.379488     -0.159763      5.581924
  H      -3.981646     -2.053896      6.454132
  H      -1.166519     -2.013499      6.981667
  H      -2.152528     -2.498916      4.550964
  H       0.173329     -3.273328      4.331129
  H       0.672800     -1.699765      2.620346
  H      -1.420546     -3.172905      2.242570
  H      -0.149412     -0.979584      4.603109
  H      -0.079514      1.162607      6.367702
28
Coordinates from ORCA-job run E -1708.648489370707
  Al      1.568325     -4.034392      0.604791
  Al      1.615173     -4.022260      3.813023
  Al      0.864711     -0.960313      1.133701
  Al     -0.849494     -2.216560      3.388594
  Al     -1.092702      0.601857      2.152350
  Al     -0.830430      0.415299      5.191844
  Al     -2.458133     -1.835998      6.061148
  H       0.754922     -5.111416     -0.239223
  H       3.151126     -3.852510      0.620898
  H       1.662720     -5.461851      4.492458
  H       2.777182     -2.934652      3.841626
  H       1.055761     -4.280644      2.220477
  H       0.845208     -2.529074      0.325553
  H       2.215032     -0.302413      0.636963
  H      -0.674566     -0.539183      0.654526
  H      -1.236313      1.329515      3.871242
  H      -1.769304     -0.773217      2.827536
  H       0.545559      0.631040      2.293527
  H      -2.009983      1.652605      1.405211
  H      -2.379017     -0.160382      5.581677
  H      -3.982086     -2.053153      6.452224
  H      -1.166937     -2.013966      6.981872
  H      -2.151330     -2.498889      4.550801
  H       0.174564     -3.272727      4.331504
  H       0.673292     -1.699321      2.620470
  H      -1.419500     -3.173017      2.242901
  H      -0.148948     -0.979547      4.602882
  H      -0.079471      1.162912      6.367153
28
Coordinates from ORCA-job run E -1708.648490234363
  Al      1.567725     -4.034143      0.604538
  Al      1.615614     -4.022874      3.813527
  Al      0.864515     -0.960010      1.133913
  Al     -0.848458     -2.216146      3.388988
  Al     -1.093279      0.601636      2.152292
  Al     -0.830556      0.415193      5.191607
  Al     -2.458119     -1.836214      6.060533
  H       0.752950     -5.111083     -0.238064
  H       3.150457     -3.852245      0.619439
  H       1.660691     -5.462565      4.492642
  H       2.778174     -2.935957      3.842856
  H       1.057150     -4.280042      2.220733
  H       0.844984     -2.528872      0.326065
  H       2.214567     -0.302134      0.636956
  H      -0.674702     -0.539153      0.654876
  H      -1.236688      1.329171      3.870929
  H      -1.768960     -0.773700      2.827994
  H       0.545128      0.631389      2.293435
  H      -2.010688      1.652212      1.405401
  H      -2.378660     -0.160991      5.581346
  H      -3.982392     -2.052583      6.450167
  H      -1.167514     -2.014639      6.981790
  H      -2.150096     -2.498802      4.550533
  H       0.175902     -3.272027      4.331960
  H       0.673923     -1.698704      2.620711
  H      -1.418233     -3.172785      2.243402
  H      -0.148429     -0.979356      4.602701
  H      -0.079645      1.163166      6.366457
28
Coordinates from ORCA-job run E -1708.648490836620
  Al      1.567172     -4.034109      0.604278
  Al      1.616116     -4.023509      3.814021
  Al      0.864435     -0.959717      1.134045
  Al     -0.847503     -2.215796      3.389302
  Al     -1.093758      0.601502      2.152171
  Al     -0.830747      0.415229      5.191483
  Al     -2.458278     -1.836393      6.060043
  H       0.751247     -5.110873     -0.237041
  H       3.149765     -3.852419      0.617986
  H       1.659204     -5.463230      4.492719
  H       2.779329     -2.937444      3.843830
  H       1.058448     -4.279651      2.221019
  H       0.844734     -2.528526      0.326454
  H       2.214051     -0.301782      0.636842
  H      -0.674856     -0.539078      0.655116
  H      -1.237071      1.328964      3.870713
  H      -1.768643     -0.773952      2.828336
  H       0.544765      0.631742      2.293329
  H      -2.011258      1.651846      1.405585
  H      -2.378539     -0.161364      5.581071
  H      -3.982674     -2.052300      6.448496
  H      -1.168229     -2.015329      6.981688
  H      -2.149160     -2.498752      4.550327
  H       0.177062     -3.271380      4.332404
  H       0.674624     -1.698065      2.620987
  H      -1.416950     -3.172368      2.243941
  H      -0.147936     -0.978990      4.602709
  H      -0.079990      1.163479      6.365876
28
Coordinates from ORCA-job run E -1708.648491296355
  Al      1.566697     -4.034217      0.604001
  Al      1.616610     -4.024139      3.814502
  Al      0.864458     -0.959432      1.134087
  Al     -0.846654     -2.215531      3.389548
  Al     -1.094127      0.601451      2.151995
  Al     -0.830988      0.415424      5.191462
  Al     -2.458587     -1.836525      6.059727
  H       0.749812     -5.110789     -0.236287
  H       3.149195     -3.852911      0.616506
  H       1.658201     -5.463932      4.492754
  H       2.780615     -2.939038      3.844625
  H       1.059597     -4.279430      2.221284
  H       0.844507     -2.528124      0.326691
  H       2.213638     -0.301326      0.636577
  H      -0.675021     -0.539005      0.655228
  H      -1.237438      1.328918      3.870590
  H      -1.768366     -0.774014      2.828555
  H       0.544461      0.632097      2.293182
  H      -2.011768      1.651572      1.405664
  H      -2.378635     -0.161492      5.580889
  H      -3.983045     -2.052293      6.447301
  H      -1.169007     -2.015945      6.981727
  H      -2.148529     -2.498764      4.550215
  H       0.178021     -3.270823      4.332823
  H       0.675369     -1.697456      2.621273
  H      -1.415749     -3.171964      2.244372
  H      -0.147494     -0.978499      4.602896
  H      -0.080413      1.163923      6.365540
28
Coordinates from ORCA-job run E -1708.648491818540
  Al      1.566047     -4.034431      0.603622
  Al      1.617247     -4.024959      3.815179
  Al      0.864593     -0.959059      1.134089
  Al     -0.845548     -2.215244      3.389841
  Al     -1.094529      0.601426      2.151710
  Al     -0.831372      0.415818      5.191499
  Al     -2.459107     -1.836666      6.059408
  H       0.747893     -5.110744     -0.235503
  H       3.148529     -3.853799      0.614395
  H       1.657176     -5.464965      4.492828
  H       2.782488     -2.941254      3.845633
  H       1.061012     -4.279187      2.221630
  H       0.844232     -2.527604      0.326915
  H       2.213257     -0.300570      0.636070
  H      -0.675204     -0.538940      0.655294
  H      -1.237940      1.328972      3.870477
  H      -1.767985     -0.773997      2.828789
  H       0.544092      0.632597      2.292950
  H      -2.012477      1.651287      1.405635
  H      -2.378937     -0.161507      5.580703
  H      -3.983683     -2.052540      6.446038
  H      -1.170067     -2.016680      6.981942
  H      -2.147855     -2.498830      4.550112
  H       0.179221     -3.270131      4.333398
  H       0.676457     -1.696631      2.621697
  H      -1.414202     -3.171541      2.244740
  H      -0.146938     -0.977754      4.603278
  H      -0.081042      1.164674      6.365361
28
Coordinates from ORCA-job run E -1708.648492449646
  Al      1.565074     -4.034704      0.603158
  Al      1.618034     -4.025958      3.816132
  Al      0.864874     -0.958588      1.134089
  Al     -0.844064     -2.214913      3.390202
  Al     -1.094965      0.601387      2.151304
  Al     -0.831944      0.416417      5.191559
  Al     -2.459817     -1.836828      6.058991
  H       0.745121     -5.110662     -0.234613
  H       3.147687     -3.855118      0.611442
  H       1.656008     -5.466389      4.493008
  H       2.785068     -2.944169      3.846994
  H       1.062737     -4.278794      2.222099
  H       0.843896     -2.527010      0.327195
  H       2.212963     -0.299426      0.635294
  H      -0.675343     -0.538922      0.655360
  H      -1.238624      1.329103      3.870329
  H      -1.767409     -0.773978      2.829115
  H       0.543644      0.633286      2.292626
  H      -2.013490      1.650946      1.405467
  H      -2.379451     -0.161480      5.580466
  H      -3.984634     -2.053115      6.444557
  H      -1.171417     -2.017530      6.982339
  H      -2.146993     -2.498936      4.549942
  H       0.180798     -3.269237      4.334189
  H       0.677993     -1.695506      2.622332
  H      -1.412206     -3.171151      2.244943
  H      -0.146251     -0.976758      4.603830
  H      -0.081930      1.165773      6.365383
28
Coordinates from ORCA-job run E -1708.648493000481
  Al      1.563910     -4.034913      0.602721
  Al      1.618785     -4.026896      3.817177
  Al      0.865251     -0.958113      1.134114
  Al     -0.842461     -2.214611      3.390569
  Al     -1.095328      0.601316      2.150871
  Al     -0.832587      0.417076      5.191593
  Al     -2.460510     -1.837004      6.058513
  H       0.741863     -5.110454     -0.233755
  H       3.146796     -3.856559      0.608150
  H       1.654824     -5.467883      4.493298
  H       2.787768     -2.947114      3.848537
  H       1.064398     -4.278229      2.222596
  H       0.843590     -2.526519      0.327515
  H       2.212846     -0.298148      0.634430
  H      -0.675354     -0.538997      0.655447
  H      -1.239349      1.329272      3.870153
  H      -1.766714     -0.774040      2.829501
  H       0.543217      0.634052      2.292281
  H      -2.014617      1.650563      1.405180
  H      -2.380027     -0.161494      5.580203
  H      -3.985668     -2.053905      6.443060
  H      -1.172756     -2.018206      6.982880
  H      -2.146027     -2.499073      4.549704
  H       0.182480     -3.268312      4.335035
  H       0.679689     -1.694308      2.623057
  H      -1.410116     -3.170940      2.244880
  H      -0.145600     -0.975774      4.604403
  H      -0.082941      1.166953      6.365618
28
Coordinates from ORCA-job run E -1708.648493287581
  Al      1.563138     -4.034948      0.602548
  Al      1.619126     -4.027270      3.817753
  Al      0.865531     -0.957880      1.134166
  Al     -0.841557     -2.214497      3.390739
  Al     -1.095413      0.601246      2.150644
  Al     -0.832964      0.417426      5.191570
  Al     -2.460790     -1.837133      6.058198
  H       0.739743     -5.110168     -0.233300
  H       3.146253     -3.857403      0.606203
  H       1.654221     -5.468594      4.493538
  H       2.789115     -2.948492      3.849475
  H       1.065127     -4.277763      2.222875
  H       0.843475     -2.526372      0.327734
  H       2.212919     -0.297453      0.633968
  H      -0.675210     -0.539130      0.655533
  H      -1.239734      1.329386      3.870039
  H      -1.766250     -0.774173      2.829748
  H       0.543049      0.634518      2.292113
  H      -2.015230      1.650279      1.404957
  H      -2.380343     -0.161583      5.580026
  H      -3.986165     -2.054491      6.442251
  H      -1.173399     -2.018291      6.983260
  H      -2.145427     -2.499182      4.549502
  H       0.183396     -3.267831      4.335482
  H       0.680666     -1.693664      2.623484
  H      -1.408950     -3.170975      2.244626
  H      -0.145343     -0.975347      4.604686
  H      -0.083623      1.167525      6.365910
28
Coordinates from ORCA-job run E -1708.648493469737
  Al      1.562562     -4.034919      0.602508
  Al      1.619293     -4.027363      3.818068
  Al      0.865765     -0.957762      1.134237
  Al     -0.841007     -2.214481      3.390795
  Al     -1.095345      0.601188      2.150527
  Al     -0.833203      0.417604      5.191515
  Al     -2.460838     -1.837267      6.057958
  H       0.738172     -5.109811     -0.232981
  H       3.145836     -3.858016      0.604922
  H       1.653929     -5.468838      4.493733
  H       2.789723     -2.949030      3.850097
  H       1.065390     -4.277360      2.223055
  H       0.843459     -2.526360      0.327913
  H       2.213037     -0.297106      0.633746
  H      -0.674987     -0.539283      0.655631
  H      -1.239938      1.329487      3.869965
  H      -1.765910     -0.774330      2.829906
  H       0.543031      0.634855      2.292049
  H      -2.015533      1.650000      1.404803
  H      -2.380518     -0.161729      5.579874
  H      -3.986313     -2.054972      6.441745
  H      -1.173709     -2.018028      6.983540
  H      -2.145018     -2.499295      4.549316
  H       0.183907     -3.267576      4.335706
  H       0.681279     -1.693308      2.623743
  H      -1.408181     -3.171070      2.244334
  H      -0.145307     -0.975211      4.604828
  H      -0.084217      1.167721      6.366201
28
Coordinates from ORCA-job run E -1708.648493648973
  Al      1.561913     -4.034905      0.602501
  Al      1.619492     -4.027396      3.818343
  Al      0.866038     -0.957635      1.134333
  Al     -0.840442     -2.214489      3.390810
  Al     -1.095203      0.601139      2.150427
  Al     -0.833460      0.417758      5.191436
  Al     -2.460802     -1.837471      6.057677
  H       0.736370     -5.109333     -0.232538
  H       3.145308     -3.858814      0.603534
  H       1.653696     -5.468926      4.493934
  H       2.790196     -2.949382      3.850740
  H       1.065582     -4.276904      2.223262
  H       0.843475     -2.526328      0.328131
  H       2.213146     -0.296843      0.633584
  H      -0.674700     -0.539458      0.655770
  H      -1.240119      1.329630      3.869895
  H      -1.765540     -0.774505      2.830048
  H       0.543081      0.635266      2.292013
  H      -2.015761      1.649617      1.404669
  H      -2.380684     -0.161944      5.579670
  H      -3.986306     -2.055546      6.441160
  H      -1.173998     -2.017557      6.983825
  H      -2.144583     -2.499458      4.549089
  H       0.184393     -3.267333      4.335890
  H       0.681918     -1.692959      2.623987
  H      -1.407274     -3.171122      2.244028
  H      -0.145365     -0.975137      4.604975
  H      -0.085013      1.167774      6.366539
28
Coordinates from ORCA-job run E -1708.648493823773
  Al      1.561178     -4.034965      0.602492
  Al      1.619797     -4.027446      3.818616
  Al      0.866351     -0.957460      1.134446
  Al     -0.839814     -2.214483      3.390800
  Al     -1.095031      0.601121      2.150328
  Al     -0.833769      0.417927      5.191350
  Al     -2.460733     -1.837748      6.057344
  H       0.734261     -5.108802     -0.231897
  H       3.144651     -3.859922      0.601943
  H       1.653505     -5.468953      4.494134
  H       2.790703     -2.949721      3.851412
  H       1.065827     -4.276432      2.223528
  H       0.843503     -2.526197      0.328389
  H       2.213224     -0.296602      0.633446
  H      -0.674401     -0.539618      0.655947
  H      -1.240304      1.329833      3.869826
  H      -1.765142     -0.774642      2.830172
  H       0.543174      0.635780      2.291979
  H      -2.015971      1.649148      1.404561
  H      -2.380881     -0.162204      5.579398
  H      -3.986210     -2.056237      6.440434
  H      -1.174326     -2.017013      6.984098
  H      -2.144118     -2.499673      4.548825
  H       0.184920     -3.267057      4.336073
  H       0.682633     -1.692552      2.624239
  H      -1.406144     -3.171062      2.243755
  H      -0.145479     -0.975040      4.605173
  H      -0.086043      1.167756      6.366920
28
Coordinates from ORCA-job run E -1708.648493927324
  Al      1.560580     -4.035109      0.602472
  Al      1.620145     -4.027529      3.818824
  Al      0.866595     -0.957270      1.134539
  Al     -0.839306     -2.214436      3.390780
  Al     -1.094916      0.601148      2.150261
  Al     -0.834054      0.418076      5.191292
  Al     -2.460678     -1.837999      6.057054
  H       0.732464     -5.108448     -0.231231
  H       3.144089     -3.861048      0.600635
  H       1.653412     -5.468978      4.494277
  H       2.791186     -2.950018      3.851887
  H       1.066107     -4.276112      2.223787
  H       0.843530     -2.525980      0.328607
  H       2.213266     -0.296410      0.633360
  H      -0.674222     -0.539687      0.656107
  H      -1.240443      1.330037      3.869771
  H      -1.764845     -0.774670      2.830246
  H       0.543263      0.636241      2.291942
  H      -2.016150      1.648777      1.404506
  H      -2.381072     -0.162415      5.579131
  H      -3.986112     -2.056838      6.439771
  H      -1.174583     -2.016678      6.984244
  H      -2.143766     -2.499860      4.548606
  H       0.185361     -3.266813      4.336224
  H       0.683211     -1.692175      2.624436
  H      -1.405145     -3.170891      2.243596
  H      -0.145594     -0.974903      4.605375
  H      -0.086962      1.167729      6.367233
28
Coordinates from ORCA-job run E -1708.648494001513
  Al      1.560161     -4.035290      0.602451
  Al      1.620468     -4.027606      3.818963
  Al      0.866752     -0.957096      1.134609
  Al     -0.838969     -2.214354      3.390762
  Al     -1.094868      0.601200      2.150234
  Al     -0.834291      0.418188      5.191263
  Al     -2.460638     -1.838182      6.056828
  H       0.731129     -5.108304     -0.230648
  H       3.143704     -3.862027      0.599756
  H       1.653410     -5.469021      4.494373
  H       2.791602     -2.950227      3.852124
  H       1.066366     -4.275941      2.224003
  H       0.843570     -2.525750      0.328765
  H       2.213320     -0.296259      0.633327
  H      -0.674157     -0.539671      0.656234
  H      -1.240523      1.330203      3.869725
  H      -1.764665     -0.774613      2.830287
  H       0.543333      0.636587      2.291899
  H      -2.016312      1.648561      1.404486
  H      -2.381240     -0.162566      5.578899
  H      -3.986060     -2.057296      6.439259
  H      -1.174713     -2.016598      6.984254
  H      -2.143540     -2.499991      4.548440
  H       0.185687     -3.266624      4.336338
  H       0.683589     -1.691864      2.624578
  H      -1.404433     -3.170690      2.243504
  H      -0.145690     -0.974754      4.605544
  H      -0.087632      1.167724      6.367472
