80
Coordinates from ORCA-job run E -4220.494318542654
  Zr         -0.37719559621813      2.07455439632746      1.25884938588357
  Zr          0.74135559247846     -2.19431512049080     -1.31112884337508
  Zr          1.69284781946517     -0.99063789784716      1.80787196356845
  Zr         -1.32573531999689      0.88139339361769     -1.85570260880063
  Zr          2.10479638337814      1.00085841078949     -1.32929019694442
  Zr         -1.74268301080285     -1.12619640788925      1.28025063445356
  O          -1.67960002300834      0.63128190053483      0.17886666867069
  O           2.04666598297067     -0.75138979346885     -0.23978549392022
  O           0.06101322311629     -1.94367718642767      0.63277104518136
  O           0.30178293034236      1.83877510539714     -0.69041119026131
  O           0.39231763556194     -0.25703909248151     -2.01671315079442
  O          -0.03245969182974      0.14308934378024      1.96073666488374
  O          -1.99003751133382      2.12911888966660      2.78335884565351
  O          -1.84233926341820      3.56475612638102      0.43792769205468
  O           1.04582775663650      2.31193233892161      2.96880961314965
  O           0.97941718778904      3.86346333521722      0.88259016203980
  O          -0.60708470280448     -3.98314748719687     -0.91137417033861
  O          -0.70241265079597     -2.43854197481974     -2.99881013750183
  O           2.22485575089197     -3.66429069431892     -0.52373485367317
  O           2.31617373778514     -2.21953693015013     -2.88092483519170
  O           0.86857632144763     -2.27263845571203      3.44013629293537
  O           2.02869637537510      0.35861264987401      3.60698805323683
  O           2.77586650834708     -2.91834676038530      1.54799253623531
  O           3.71103337571514     -0.03423130248699      1.65088357559931
  O          -3.38295567022275      0.01246687726828     -1.71758958499389
  O          -2.36163865608580      2.83573829912614     -1.64806433050768
  O          -1.69722208295748     -0.49757830062539     -3.63895982569121
  O          -0.48166947811321      2.14669417794812     -3.54403106092340
  O           1.75160143607327      2.25732059739388     -3.14399786380641
  O           2.66319578368770      2.91103773488327     -0.31653063929627
  O           3.14549442890890     -0.10809326871484     -2.96340777400096
  O           4.17842917319876      0.79764059629350     -0.41773331619130
  O          -3.78456972113728     -0.96286859392656      0.30161597205179
  O          -2.84443246722611      0.02755873507254      2.84766326963001
  O          -2.27743682374400     -3.08922099731889      0.35248927420893
  O          -1.38165383344561     -2.29576956254981      3.13815121022734
  C          -2.76736363701586      1.23108186560012      3.23605521250206
  C          -2.43515071550558      3.65512199389076     -0.67649674956840
  C           1.62174815346991      1.53826481301295      3.80546905929239
  C           2.04371696092492      3.89993132448093      0.20354140749370
  C          -1.65071040046662     -4.05313840812281     -0.20222114889438
  C          -1.29315064066824     -1.68144721708911     -3.83720538927328
  C           2.85127587324064     -3.73328229681024      0.57625499619244
  C           3.04701431125856     -1.30479899080307     -3.37255877638136
  C          -0.31254540016918     -2.61518452031920      3.74657290881951
  C           4.49640845617144      0.32450244365548      0.71036120010884
  C          -4.13822832172662     -0.43488887124572     -0.79119003486200
  C           0.70010741751915      2.55143158107610     -3.78367769827067
  H          -1.49127558455939     -2.12304039830390     -4.85740575360745
  H           3.54830359075221     -4.61017697876278      0.70679560619287
  H           1.80073451996959      1.96842518902557      4.83405034736892
  H          -3.09885491995351      4.55383848035926     -0.82929435633773
  H           3.67462216232956     -1.58897166385236     -4.26511916950810
  H           0.82270107602937      3.24714386999885     -4.66466823682682
  H           2.51308061790581      4.91525667366024      0.04991498162781
  H           5.60104017574599      0.22034606714111      0.92001491467812
  H          -2.09283632482752     -5.08126387415270     -0.05243259505237
  H          -5.24772353331285     -0.36308363469452     -0.98528861565130
  H          -3.46036931644133      1.54029464716703      4.07024833643568
  H          -0.42898465287877     -3.27316022342842      4.65503277921096
  Al         -2.32724544546894      2.71696631221535     -5.87232841204344
  Al         -0.03336153327331      0.65183819816908     -7.16070646606490
  H          -1.38077410624397      0.05997051343864     -8.05812098873329
  H           0.87923568272301      1.41274546825987     -8.25212408043006
  H          -0.87715497078173      1.90940171642668     -6.31670135427132
  H          -3.30766854527463      2.40669077427811     -7.14961525819104
  H          -3.07856611023299      1.65078109362393     -4.74770387014508
  H           0.47523184434896     -0.41715588298227     -6.06395877744882
  Al         -2.76337847832557     -0.96459942195521     -7.80461966035693
  H          -3.27877807874982     -0.22302265038315     -6.35418195559076
  H          -3.75946130806207     -0.61082298646730     -9.02209472706748
  H          -2.03230401512288      4.19988858587877     -5.32677766815707
  Al         -4.45635688578576      0.82059418858326     -5.50607812597759
  H          -5.32498881791324      2.43334117291687     -5.20804483446534
  H          -5.11743987758906     -0.19643392657501     -4.45282719359433
  H          -2.20697861178531     -2.43115227386187     -7.40698810522193
  Al         -6.34728214672492      2.34669320189131     -6.61161725566061
  H          -7.82005811724810      1.88864393433457     -6.12926044250198
  H          -5.45090437280784      0.87386858583813     -6.98753872289570
  H          -5.97899905839296      3.49233697800145     -7.68462411504126
