64
Coordinates from ORCA-job run E -3244.518018682728
  Zr         -0.17385888426629      2.09892186201272      1.41672614202388
  Zr          0.18135119821822     -2.11496192611327     -1.48185866740520
  Zr          1.73999288783847     -1.11899833127302      1.47191345705943
  Zr         -1.73793750400599      1.08542580967749     -1.53821527764116
  Zr          1.74440156872697      0.99923125092123     -1.61108021864784
  Zr         -1.74313337908607     -1.00915328203568      1.55154271199809
  O          -1.76108135408739      0.80264736351728      0.53667954885788
  O           1.75275257722872     -0.80927657814760     -0.59691295305074
  O          -0.13414213981269     -1.90532624451673      0.55947933855462
  O           0.14214089737915      1.89178803087578     -0.61739049276743
  O          -0.13416700366869     -0.12106897166689     -2.03452368305118
  O           0.13678419150947      0.11018510530299      1.96770956805791
  O          -1.53006325344856      2.20966566011311      3.16939083443733
  O          -1.62112356682102      3.75683466330109      0.83125972319461
  O           1.52388930053648      2.11944174088410      2.88274265646334
  O           1.24069886923089      3.80303684517454      0.93196100658015
  O          -1.20817065939303     -3.83222112620152     -0.93689317901348
  O          -1.53733848990889     -2.15198091479792     -2.92053825481325
  O           1.66659572214453     -3.71092990001316     -0.98432838449187
  O           1.49368821164795     -2.18270968644318     -3.27769292286121
  O           1.09942392561604     -2.44184290118913      3.15951161193149
  O           2.46144567407818      0.08334588603654      3.26212011716610
  O           2.63409011673888     -3.09084982433366      0.96873870327285
  O           3.74639069500566     -0.24114221070758      1.00480067644071
  O          -3.72519675014026      0.14826851100978     -1.08476930368496
  O          -2.76224495278141      2.99554164347862     -0.97063584453016
  O          -2.44592518415292     -0.11014939282356     -3.33675839057149
  O          -1.13113231112943      2.45902814438758     -3.16828602513349
  O           1.12784928393703      2.31609146216649     -3.30573720162282
  O           2.60556234499890      2.81565295615101     -0.59500110575093
  O           2.43718896065350     -0.12632985815306     -3.41056747329097
  O           3.93317742213528      0.62873491027496     -1.08763677621529
  O          -3.92827853793906     -0.68784678148378      1.01727037059296
  O          -2.45166804587923      0.14516583760053      3.33512091171927
  O          -2.56518607238966     -2.87901661007595      0.61899130335275
  O          -1.16005126706768     -2.30106178284604      3.26257733039839
  C          -2.25487660851718      1.32914832189620      3.73462680890708
  C          -2.59459376267813      3.77947402488863      0.00813670366272
  C           2.15654083547724      1.26589601951251      3.58818744911168
  C           2.19807742276505      3.80129963133234      0.10033894508406
  C          -2.10914827026807     -3.86393998275283     -0.05066409204271
  C          -2.15715225914931     -1.30180741129208     -3.64268730550382
  C           2.48168718449333     -3.86485868816173     -0.02776274204713
  C           2.21711806216186     -1.29871634429217     -3.83545254010753
  C          -0.03008381894120     -2.73814860829790      3.64802886285017
  C           4.39488779743454      0.08339813923720     -0.04621575481542
  C          -4.38553833169059     -0.17004492415789     -0.04113466598111
  C          -0.00168474107790      2.78755986097211     -3.64611713742764
  H          -2.49673628042611     -1.66114983873102     -4.65793652770692
  H           3.13888275803986     -4.78088957302622     -0.05994529794524
  H           2.49355069628628      1.61327421646783      4.60856702111797
  H          -3.36972904301529      4.58344818926774      0.15961129205974
  H           2.71325755202712     -1.59067840972492     -4.80529663721184
  H          -0.00600816868512      3.56761827528646     -4.45967170923405
  H           2.76141387572697      4.77131418256750     -0.01966405327961
  H           5.50424014342456     -0.12778440330214     -0.03283381277020
  H          -2.57395483358007     -4.87105663368045      0.16201784115087
  H          -5.49852667354180      0.01747137845460     -0.07476494747026
  H          -2.77303082258933      1.64028465250930      4.68683858277275
  H          -0.03790201179658     -3.46178056571737      4.51312839732089
  Al         -0.42371189149219      6.05108727419193     -0.93996077198128
  H           0.27356486631367      7.05735237168458      0.12037819467982
  H           0.45029599708169      4.93837715013937     -1.71660132452132
  H          -1.94868536401362      6.33423540632539     -1.43617363968204
