84
Coordinates from ORCA-job run E -4464.480452904198
  Zr         -0.26136108859217      2.21377014086245      1.48355868768931
  Zr          0.24803813938953     -2.07291163216604     -1.26004444216200
  Zr          1.64237464228333     -0.96080160706096      1.71677469964845
  Zr         -1.70662127221322      1.13683644871653     -1.45558753388485
  Zr          1.76588930863965      1.05815264386521     -1.44402052689099
  Zr         -1.80714491436689     -0.92749826994700      1.64818174772159
  O          -1.80082847536310      0.86042739852153      0.58587618661287
  O           1.78678184616644     -0.69140642764822     -0.34560895248574
  O          -0.16054772962795     -1.76736445025883      0.73621184197425
  O           0.13945596204077      1.92741000348566     -0.52020413106037
  O          -0.11608206838878     -0.13505973207856     -1.88747706778730
  O           0.03874602848712      0.25788811242479      2.14087287193959
  O          -1.66125862090575      2.31339094736438      3.22439982937782
  O          -1.69933882432962      3.81347910615822      0.90653686212783
  O           1.41092213633253      2.34047235397938      2.93925350509809
  O           1.16170839143781      3.88349457506100      0.88260355492462
  O          -1.10485564948946     -3.77983008725605     -0.63380388542576
  O          -1.37815410468520     -2.30282094822668     -2.77562828816255
  O           1.79523274712540     -3.58305867659077     -0.72301103997094
  O           1.62366967321780     -2.16098037008394     -3.03111496245375
  O           1.03035924651738     -2.24218577170149      3.44602444687290
  O           2.29965377404921      0.32845665442127      3.52776028884801
  O           2.59991811631728     -2.91988937737876      1.28896495668332
  O           3.74083461527114     -0.17356316858997      1.40265422818597
  O          -3.91775136269834      0.71188175937667     -1.00515337461366
  O          -2.51176032352604      3.19913122830639     -1.12513753438982
  O          -2.54522329331014     -0.35603243573185     -2.91838856873272
  O          -1.09799177782692      2.26185402877194     -3.27547566019019
  O           1.17224772277404      2.16597775365418     -3.30592784588666
  O           2.44503519356787      3.12351005012331     -0.85363097374158
  O           2.64451327986292     -0.13131756130852     -3.10671993137649
  O           3.83274342174760      0.93174570705226     -0.58192958337803
  O          -3.77469403206375     -0.86645711365056      0.63289504330792
  O          -2.73203728531460      0.30422500514121      3.26982913991844
  O          -2.39145903982427     -3.04938944721799      1.11407574274451
  O          -1.22627560500243     -1.99531625977004      3.51717037382642
  C          -2.49827141085379      1.47923287192807      3.69009984145916
  C          -2.40851696004218      3.98297742282952     -0.13326202096112
  C           2.02125844907187      1.54448928956653      3.72945715255502
  C           1.99092974588907      4.01739426613615     -0.06736787662450
  C          -1.90778985191907     -3.93558821744300      0.33979222471046
  C          -2.16971647030776     -1.48936530703121     -3.34663156944922
  C           2.59954458036990     -3.65517905136233      0.24900152729876
  C           2.42718689642135     -1.31203506841877     -3.52254862347337
  C          -0.11660800051200     -2.39474983031901      3.97662719107930
  C           4.34897766629578      0.30499526614601      0.38844888265759
  C          -4.40361092987262     -0.04498230137415     -0.11951026189226
  C           0.04400396264254      2.48852477487633     -3.78482099377216
  H          -2.60634704459599     -1.82455578212554     -4.33180910712304
  H           3.42207426018129     -4.42191810354432      0.19454246189665
  H           2.36262063274160      1.98441027397140      4.71147627990135
  H          -3.01021406575014      4.93563903172174     -0.17943163609773
  H           3.01489032916098     -1.63969511561551     -4.42783708973266
  H           0.05281410953070      3.03849117454539     -4.76956388246202
  H           2.39281517910979      5.06043799414215     -0.23025215632878
  H           5.46788085097547      0.16452003418706      0.36156976263604
  H          -2.24428210670048     -4.99566263256563      0.53443741955923
  H          -5.52392486748285     -0.01248242231341      0.01625999673110
  H          -3.10402983642370      1.82233880761309      4.57801737878413
  H          -0.14042000707451     -2.95232205940519      4.95726148987236
  Al          5.38468138138924     -6.76124320256825      5.19400125145391
  Al          4.56835407948858     -6.99565606431491      1.92446707122266
  H           2.91665454640272     -6.54248390723481      2.05948591157642
  H           5.38273065534160     -5.64304971898307      1.47366779526813
  H           4.85369170292048     -7.28137992887253      3.57953977605474
  H           6.98999991476943     -6.72735442135143      5.04558834250110
  H           4.78205411594024     -5.18453155913314      5.11186410437506
  H           4.67362055524640     -8.36137345205797      1.08751346086947
  Al          1.66949077930115     -5.80710642722199      3.07399439332710
  H           2.73014299619617     -4.68892973468180      3.77405655740179
  H           0.63933969198164     -5.10125799872095      2.04995717425785
  H           4.45476548657770     -7.63410677778543      6.17886781740705
  Al          3.90772294999123     -3.67937849972344      4.63294256532464
  H           4.89195126270777     -3.92780997167171      3.17591445460509
  H           3.11284886303736     -3.42549040930885      6.01591990128952
  H           1.33175720525292     -6.92334010421865      4.18934487196759
  Al          6.09447788114840     -3.47752797667145      2.07038547790751
  H           5.56890283230843     -3.01164912925083      0.61553632913218
  H           7.51683877739099     -4.11604752549541      2.47636439583670
  Al          5.24680070228806     -1.36543902146615      4.20272101443921
  H           5.52940707271929      0.12209956909169      4.73686656205481
  H           5.51377050531908     -2.70982960017371      5.20781791828392
  H           3.72042251834336     -1.97873889588378      3.86882449270818
  H           6.16537260502797     -1.84019688750358      2.85591487662168
