4
Coordinates from ORCA-job run E -243.863254065693
  Al     -1.365110      0.622413     -0.208480
  H      -0.538579      0.414764      1.140518
  H      -1.297630      2.018238     -0.978666
  H      -2.259130     -0.565764     -0.787303
4
Coordinates from ORCA-job run E -243.863382245206
  Al     -1.365109      0.622412     -0.208481
  H      -0.541734      0.415556      1.135371
  H      -1.297888      2.012912     -0.975727
  H      -2.255719     -0.561230     -0.785093
4
Coordinates from ORCA-job run E -243.863467295180
  Al     -1.365109      0.622413     -0.208481
  H      -0.547260      0.416943      1.126353
  H      -1.298339      2.003581     -0.970579
  H      -2.249742     -0.553287     -0.781223
4
Coordinates from ORCA-job run E -243.863467385336
  Al     -1.365109      0.622413     -0.208482
  H      -0.547084      0.416898      1.126641
  H      -1.298325      2.003879     -0.970743
  H      -2.249932     -0.553540     -0.781346
4
Coordinates from ORCA-job run E -243.863467385306
  Al     -1.365109      0.622413     -0.208482
  H      -0.547088      0.416899      1.126635
  H      -1.298325      2.003873     -0.970740
  H      -2.249928     -0.553535     -0.781343
