20
Coordinates from ORCA-job run E -1219.492365537412
  Al         -0.53668452082998      0.94144839899808      2.94554420124689
  Al          0.13726762404387     -0.42246844875151      0.29458084300945
  H          -0.42265495974861     -2.02173420622689      0.32547147031017
  H          -0.33213664568405      0.18618441967445     -1.07525367254219
  H          -0.90113877634747      0.08987779154608      1.51189574881654
  H          -1.91210591679940      0.97715386065074      3.71344393804475
  H           0.43257686879311     -0.20956312015295      3.64110591832364
  H           1.59132020877864     -0.44729904192826      0.91148698741391
  Al          0.03356686076971     -3.31206237750641      1.31564829900601
  H           0.21716019602165     -2.32355364665139      2.67713027247017
  H          -1.26835105765986     -4.15382221428930      1.57284609894673
  H           0.34775137812031      2.17710203253096      2.52585975710229
  Al          1.21961247428354     -1.74183997962590      3.87360984770297
  H           0.44311798611903     -1.76053099402469      5.38869355226164
  H           2.71716961185033     -1.35272043783533      3.64501567919654
  H           1.45986234150431     -3.81783123602728      0.89023598650993
  Al          0.67592463433664     -3.43868482654071      5.80719951902765
  H           1.69935813609728     -3.45785560833362      7.00139332763999
  H           1.46512663944054     -3.50824327279527      4.33056998267598
  H          -0.74053308308965     -4.11857709271049      5.71351224283635
