88
Coordinates from ORCA-job run E -4708.492370424734
  Zr          0.02167854673139      2.21032515031658      1.55205513652054
  Zr          0.06719144902564     -1.80220512038523     -1.60757182519945
  Zr          1.94505575629237     -0.99939271266520      1.22479494494438
  Zr         -1.88208167574220      1.36128125433124     -1.23544585942853
  Zr          1.59426460529824      1.30725026258250     -1.71365630997825
  Zr         -1.48155156608713     -0.92543956876469      1.71549000597910
  O          -1.62512768968229      0.92054304220568      0.77878792811652
  O           1.73415790454636     -0.56502225972576     -0.80754082478244
  O          -0.00787735750163     -1.77020450313725      0.47867692904154
  O           0.10796668317579      2.12561055815696     -0.51557178794808
  O          -0.32879268724623      0.16620486924891     -1.95852310862706
  O           0.43491228049251      0.20063720801042      1.93927933379253
  O          -1.10381924518317      2.16990230294490      3.47385095883925
  O          -1.48413178510076      3.83530331892181      1.31283938416232
  O           1.81790668111424      2.22130442830364      2.90222585824669
  O           1.40086083535705      3.90076540857770      0.95816542208672
  O          -1.53167344573168     -3.24145195181315     -1.06675548195242
  O          -1.54280944409511     -1.77191657643248     -3.20704081105633
  O           1.58509429971720     -3.64505181742431     -1.30928742606419
  O           1.40151248809584     -1.85994812197569     -3.38868536887541
  O           1.57397161952801     -2.43809819812958      2.85437456170942
  O           2.88839533596855      0.21375186851265      2.87529239305696
  O           2.80236117349362     -2.96794661734310      0.47313902761434
  O           3.96894211903262     -0.28593323011177      0.56334005710666
  O          -3.89268581088868      0.66854686177770     -0.52907842655109
  O          -2.64315397376419      3.33765425883801     -0.57283768353822
  O          -2.80447530049260      0.08623737236328     -2.82188583955434
  O          -1.46374974722209      2.68915819068431     -2.98056539658995
  O           0.77743402565781      2.58650904728846     -3.33034090910124
  O           2.45231094523385      3.23095446779608     -0.94645309313547
  O           2.20240835941134      0.25156665464169     -3.58895821517060
  O           3.78685990604294      1.03231100257855     -1.28072091359527
  O          -3.69125306830638     -0.60928155223169      1.34475312123884
  O          -2.00922750339815      0.09580996893439      3.61972080352097
  O          -2.40220734264830     -2.82318400225251      0.98551380413237
  O          -0.64793219447805     -2.27845789980761      3.27361376785981
  C          -1.76891852893305      1.26082968678174      4.06065097335708
  C          -2.36650792700218      4.06461722489042      0.43137290462794
  C           2.59968593008271      1.33885292890340      3.38114733141318
  C           2.12461214004326      4.08750135211476     -0.06439522771174
  C          -2.16889244489034     -3.56648866403203     -0.01300200445607
  C          -2.43400499169209     -0.92347663780008     -3.50438449453870
  C           2.53663909516917     -3.77791979532197     -0.43403429838317
  C           2.08196407625728     -0.95239141538071     -3.96418572170897
  C           0.50370254126556     -2.77327746102328      3.45695274067176
  C           4.42779546820479      0.30639473689021     -0.46328016440015
  C          -4.33826209954335      0.10181975883978      0.51942933535217
  C          -0.39790367294426      2.98742775587451     -3.59866423414580
  H          -2.98163282828232     -1.09189267088233     -4.47761431027511
  H           3.16515093135057     -4.70790905560111     -0.52541519049981
  H           3.10941525177454      1.59696413084130      4.35491194704701
  H          -2.96730037754039      5.01146680170725      0.54994600171028
  H           2.63244111606169     -1.25475600943123     -4.90002025919201
  H          -0.50270244283477      3.68270952601607     -4.48056200038211
  H           2.54450594133704      5.12754539701185     -0.19979780404951
  H           5.53517007010720      0.18907084600821     -0.65615517504269
  H          -2.58767757947184     -4.61137900090443      0.01902834389978
  H          -5.44180594255161      0.23167516434036      0.72525916125487
  H          -2.18809369877175      1.51509570865758      5.07587007730884
  H           0.59337073120367     -3.58701791302518      4.22995827013362
  Al         -1.69146115075218     -7.22240010564831      3.07075700846277
  Al          1.42963836719482     -7.63708797896408      1.90961910188694
  Al         -2.87163083456876     -8.32618920833876      0.08944282280964
  Al         -0.11669986945068     -7.08926568027146     -0.67773017905404
  Al         -2.66563416095302     -7.33988360165349     -2.51310697909860
  Al          0.10776936018782     -8.19775604921769     -3.63992790608142
  Al          1.31186416881514     -5.04926842889657     -2.78113799287269
  H          -1.54572105627267     -5.62971922805048      3.25686387166718
  H          -2.08768823699145     -8.25118809651759      4.25065451921810
  H           1.85262929035780     -6.08750750190039      2.12583136549567
  H           2.26361461833749     -8.89896666941214      2.48004013033236
  H          -0.20018111071977     -7.88008996704180      2.44448705233102
  H          -2.69501283020182     -7.56623069198328      1.72333311707885
  H          -3.73329146972796     -9.64404126288504      0.40807243511419
  H          -3.43924431540351     -6.93565034720329     -0.65121030062917
  H          -1.54595030021995     -7.86896894421159     -3.89293555902792
  H          -1.36342680725463     -6.45471635319757     -1.88077033619582
  H          -2.71696727014379     -8.87927141855559     -1.88090754983458
  H          -3.83705767874364     -6.60733112241193     -3.33138556552464
  H           0.88855327914556     -6.76673244478354     -3.91334187774010
  H          -0.05133505812369     -4.41745983735948     -3.35229736558443
  H           2.81407725092342     -5.15333000923580     -3.36781384991051
  H           1.16737865652121     -6.19834732279128     -1.50116839624440
  H           1.17978151317405     -7.95629712185837      0.22460717449779
  H          -1.18830823785406     -8.43140851850351     -0.07542031343554
  H          -0.54762977417031     -5.99923754597337      0.45752130545852
  H           0.20530994436694     -8.38629602254860     -1.93857423591531
  H           0.57484104205369     -9.54269828964656     -4.40373950261212
