20
Coordinates from ORCA-job run E -1220.402277408355
  Al         -0.55180781145828      0.97503463608730      2.92394746252896
  Al          0.15419094197360     -0.41889729555399      0.31448948638088
  H          -0.40532603694232     -2.05157634691005      0.26576059491893
  H          -0.27623210258625      0.22634662752155     -1.07095179858094
  H          -0.96618767696594      0.04680626702565      1.51647089333247
  H          -1.93662271943721      1.05210620132267      3.70787932742223
  H           0.42977187006292     -0.15943331216100      3.69763340138488
  H           1.59958972277065     -0.46038459069160      0.98994679393074
  Al          0.06427468606976     -3.31149838192071      1.33737605938807
  H           0.04936666956536     -2.26933415122493      2.70527727076900
  H          -1.22073488361304     -4.22937290760927      1.51822146504132
  H           0.35054514712581      2.18661405120839      2.41463024153154
  Al          1.19051335996376     -1.75304688116929      3.85165039907282
  H           0.48412359983157     -1.75553171392237      5.42970429103067
  H           2.70292800300296     -1.40381716326690      3.55489221318265
  H           1.56501037351376     -3.74098803181263      1.03940690919337
  Al          0.68410279889365     -3.46626009658916      5.81327679155494
  H           1.80825921583188     -3.53562303970957      6.93572273559405
  H           1.37782356736631     -3.55109191839111      4.26407224016698
  H          -0.77737872496899     -4.09507195223283      5.80058322215613
