20
Coordinates from ORCA-job run E -1220.496384371750
  Al         -1.19963308904158      1.38316474048229      3.65579570753725
  H          -2.37650085936524      2.44180740636817      3.69735218758830
  H           1.67412125703710     -2.13613292527971     -0.33085314687458
  H           0.33623527341103     -0.40730085051352      3.68393433257597
  Al          1.16138039419349      2.50090892634094      3.91562981948229
  H           2.43172416803525      1.55773717313836      4.00595856320094
  H           1.09653911181984      4.08601612363527      3.93051634731913
  H          -1.76629353184102      0.13402201154845      4.83501214728512
  Al         -0.96110964744911     -1.21721932831644      1.87373981469334
  H          -1.98774571726130     -1.78232289280199      0.80896145224172
  H          -0.07290056593779      1.90041423553421      4.95077134990493
  H           0.33371063451882     -0.30856386760164      1.08948088827477
  Al         -0.73767976404376     -1.17648515866728      4.65487672621875
  H          -1.56959902628891     -1.93898849414602      3.41624480817652
  H          -0.36251393456352     -2.01735094785574      5.93446602843549
  H           2.68052621077884     -1.13384217868061      2.15214888327116
  Al          1.53683293650364     -1.54917252290445      1.13673080005852
  H          -1.63397675934109      0.28485398743945      2.39488418672826
  H           0.12841196122815      1.95174587891784      2.64171029927183
  H           0.33365094760717     -2.45326131663755      1.96797880460987
