12
Coordinates from ORCA-job run E -732.369103108019
  Al         -0.23069455424592      1.50738597766606      2.56048536591125
  Al          0.00022687913196     -0.00063431040660     -0.07173377714728
  H           0.86852982987609     -0.92193053643828      1.07837205532799
  H          -1.08955844349879     -0.90781956668430     -0.75740852384341
  H          -0.85797136148404      0.92816483377561      1.07996845324432
  H          -1.45807782950677      2.17729870964516      3.28568345704279
  H           0.00438890294133      0.00099350880835      3.31766179301992
  H           1.08370486129040      0.90222004663551     -0.77289230515089
  Al          0.25683825739151     -1.50451991252462      2.56409811422756
  H           1.49701602071840     -2.15633121925072      3.28400718251309
  H          -1.17025506026900     -2.12421081115731      2.30819868084374
  H           1.20279249765486      2.10769327993115      2.29391950401087
