12
Coordinates from ORCA-job run E -732.368752524609
  Al     -0.229465      1.518719      2.565333
  Al      0.000121     -0.000507     -0.083536
  H       0.872783     -0.936113      1.069964
  H      -1.104267     -0.908414     -0.771134
  H      -0.863230      0.941627      1.071787
  H      -1.473542      2.184480      3.291334
  H       0.004056      0.000973      3.330927
  H       1.098729      0.903679     -0.785103
  Al      0.255690     -1.515992      2.569382
  H       1.513180     -2.162656      3.289507
  H      -1.180669     -2.143678      2.318759
  H       1.213553      2.126193      2.303140
12
Coordinates from ORCA-job run E -732.368927552951
  Al     -0.229286      1.516221      2.564032
  Al      0.000136     -0.000511     -0.080902
  H       0.870778     -0.934281      1.071143
  H      -1.101347     -0.906130     -0.766961
  H      -0.861176      0.939813      1.072956
  H      -1.469883      2.180631      3.288372
  H       0.004075      0.000975      3.327542
  H       1.095832      0.901373     -0.780951
  Al      0.255496     -1.513487      2.568052
  H       1.509456     -2.158871      3.286555
  H      -1.177387     -2.139620      2.318031
  H       1.210245      2.122198      2.302490
12
Coordinates from ORCA-job run E -732.369091892030
  Al     -0.228986      1.509949      2.560858
  Al      0.000174     -0.000522     -0.074314
  H       0.865780     -0.929536      1.074199
  H      -1.094826     -0.901302     -0.757289
  H      -0.856041      0.935118      1.075986
  H      -1.461749      2.171813      3.281808
  H       0.004123      0.000979      3.319028
  H       1.089347      0.896483     -0.771371
  Al      0.255160     -1.507189      2.564798
  H       1.501159     -2.150212      3.280023
  H      -1.170245     -2.130000      2.315983
  H       1.203044      2.112730      2.300650
12
Coordinates from ORCA-job run E -732.369095536529
  Al     -0.229100      1.509479      2.560698
  Al      0.000177     -0.000523     -0.073849
  H       0.865428     -0.929036      1.074517
  H      -1.094856     -0.901591     -0.757179
  H      -0.855666      0.934632      1.076299
  H      -1.461840      2.171828      3.281975
  H       0.004128      0.000979      3.318363
  H       1.089362      0.896755     -0.771307
  Al      0.255271     -1.506713      2.564626
  H       1.501235     -2.150238      3.280199
  H      -1.170439     -2.129663      2.315659
  H       1.203239      2.112403      2.300359
12
Coordinates from ORCA-job run E -732.369101036165
  Al     -0.229595      1.507897      2.560205
  Al      0.000190     -0.000529     -0.072316
  H       0.864263     -0.927217      1.075660
  H      -1.094688     -0.902554     -0.756938
  H      -0.854403      0.932871      1.077425
  H      -1.461898      2.172114      3.282642
  H       0.004146      0.000978      3.316083
  H       1.089132      0.897647     -0.771257
  Al      0.255759     -1.505106      2.564085
  H       1.501235     -2.150575      3.280909
  H      -1.170858     -2.128426      2.314511
  H       1.203656      2.111210      2.299351
12
Coordinates from ORCA-job run E -732.369101334211
  Al     -0.229728      1.507887      2.560258
  Al      0.000191     -0.000530     -0.072338
  H       0.864283     -0.927038      1.075759
  H      -1.094510     -0.902664     -0.757152
  H      -0.854402      0.932707      1.077521
  H      -1.461771      2.172456      3.282856
  H       0.004149      0.000978      3.316024
  H       1.088939      0.897740     -0.771513
  Al      0.255893     -1.505092      2.564129
  H       1.501097     -2.150931      3.281133
  H      -1.170753     -2.128370      2.314406
  H       1.203552      2.111168      2.299277
12
Coordinates from ORCA-job run E -732.369102641920
  Al     -0.230797      1.508115      2.560804
  Al      0.000201     -0.000542     -0.072796
  H       0.864737     -0.925756      1.076443
  H      -1.092901     -0.903472     -0.758976
  H      -0.854687      0.931552      1.078181
  H      -1.460563      2.175394      3.284568
  H       0.004174      0.000975      3.315964
  H       1.087202      0.898400     -0.773684
  Al      0.256976     -1.505285      2.564603
  H       1.499802     -2.153986      3.282932
  H      -1.169711     -2.128027      2.313592
  H       1.202506      2.110943      2.298730
12
Coordinates from ORCA-job run E -732.369102682737
  Al     -0.230851      1.508186      2.560848
  Al      0.000201     -0.000544     -0.072848
  H       0.864876     -0.925652      1.076492
  H      -1.092743     -0.903573     -0.759031
  H      -0.854808      0.931461      1.078228
  H      -1.460433      2.175613      3.284666
  H       0.004178      0.000974      3.316061
  H       1.087036      0.898484     -0.773770
  Al      0.257030     -1.505356      2.564641
  H       1.499665     -2.154215      3.283034
  H      -1.169631     -2.127959      2.313438
  H       1.202420      2.110891      2.298601
12
Coordinates from ORCA-job run E -732.369102735518
  Al     -0.230896      1.508259      2.560873
  Al      0.000203     -0.000549     -0.072844
  H       0.865145     -0.925411      1.076615
  H      -1.092500     -0.903829     -0.758954
  H      -0.855045      0.931243      1.078346
  H      -1.460238      2.175881      3.284779
  H       0.004187      0.000974      3.316209
  H       1.086782      0.898708     -0.773748
  Al      0.257073     -1.505428      2.564654
  H       1.499456     -2.154500      3.283149
  H      -1.169582     -2.127741      2.313038
  H       1.202356      2.110705      2.298245
12
Coordinates from ORCA-job run E -732.369102811127
  Al     -0.230937      1.508296      2.560862
  Al      0.000207     -0.000557     -0.072733
  H       0.865605     -0.924919      1.076872
  H      -1.092112     -0.904354     -0.758686
  H      -0.855446      0.930794      1.078592
  H      -1.459937      2.176237      3.284940
  H       0.004205      0.000973      3.316396
  H       1.086376      0.899173     -0.773577
  Al      0.257109     -1.505467      2.564620
  H       1.499130     -2.154888      3.283310
  H      -1.169594     -2.127265      2.312239
  H       1.202335      2.110288      2.297524
12
Coordinates from ORCA-job run E -732.369102902886
  Al     -0.230959      1.508247      2.560790
  Al      0.000214     -0.000573     -0.072461
  H       0.866307     -0.924093      1.077310
  H      -1.091544     -0.905241     -0.758162
  H      -0.856053      0.930038      1.079010
  H      -1.459508      2.176665      3.285158
  H       0.004236      0.000972      3.316614
  H       1.085780      0.899963     -0.773208
  Al      0.257122     -1.505419      2.564510
  H       1.498658     -2.155369      3.283525
  H      -1.169711     -2.126436      2.310934
  H       1.202399      2.109555      2.296340
12
Coordinates from ORCA-job run E -732.369102962499
  Al     -0.230935      1.508105      2.560691
  Al      0.000219     -0.000586     -0.072183
  H       0.866852     -0.923412      1.077670
  H      -1.091114     -0.905983     -0.757705
  H      -0.856521      0.929418      1.079351
  H      -1.459197      2.176883      3.285308
  H       0.004264      0.000972      3.316738
  H       1.085328      0.900628     -0.772870
  Al      0.257090     -1.505278      2.564381
  H       1.498309     -2.155637      3.283668
  H      -1.169882     -2.125725      2.309907
  H       1.202527      2.108925      2.295405
12
Coordinates from ORCA-job run E -732.369102999248
  Al     -0.230889      1.507944      2.560614
  Al      0.000222     -0.000596     -0.072010
  H       0.867163     -0.923035      1.077865
  H      -1.090866     -0.906415     -0.757472
  H      -0.856787      0.929082      1.079530
  H      -1.459026      2.176918      3.285382
  H       0.004284      0.000973      3.316800
  H       1.085069      0.901014     -0.772703
  Al      0.257039     -1.505115      2.564286
  H       1.498110     -2.155710      3.283735
  H      -1.170023     -2.125310      2.309394
  H       1.202643      2.108559      2.294940
12
Coordinates from ORCA-job run E -732.369103031134
  Al     -0.230832      1.507771      2.560554
  Al      0.000225     -0.000605     -0.071897
  H       0.867439     -0.922761      1.077998
  H      -1.090630     -0.906755     -0.757369
  H      -0.857024      0.928847      1.079647
  H      -1.458862      2.176915      3.285446
  H       0.004304      0.000976      3.316891
  H       1.084821      0.901314     -0.772653
  Al      0.256980     -1.504936      2.564212
  H       1.497918     -2.155750      3.283792
  H      -1.170137     -2.124998      2.309080
  H       1.202739      2.108292      2.294661
12
Coordinates from ORCA-job run E -732.369103068430
  Al     -0.230758      1.507552      2.560499
  Al      0.000227     -0.000617     -0.071801
  H       0.867852     -0.922420      1.078153
  H      -1.090249     -0.907196     -0.757334
  H      -0.857382      0.928565      1.079779
  H      -1.458590      2.176961      3.285548
  H       0.004335      0.000982      3.317099
  H       1.084423      0.901697     -0.772693
  Al      0.256904     -1.504707      2.564138
  H       1.497603     -2.155866      3.283884
  H      -1.170248     -2.124624      2.308729
  H       1.202824      2.107985      2.294360
12
Coordinates from ORCA-job run E -732.369103096050
  Al     -0.230703      1.507391      2.560473
  Al      0.000228     -0.000629     -0.071749
  H       0.868284     -0.922104      1.078293
  H      -1.089830     -0.907609     -0.757363
  H      -0.857758      0.928309      1.079896
  H      -1.458282      2.177093      3.285655
  H       0.004366      0.000988      3.317384
  H       1.083986      0.902049     -0.772800
  Al      0.256847     -1.504533      2.564094
  H       1.497250     -2.156074      3.283981
  H      -1.170298     -2.124309      2.308406
  H       1.202851      2.107740      2.294090
12
Coordinates from ORCA-job run E -732.369103106762
  Al     -0.230691      1.507361      2.560478
  Al      0.000228     -0.000634     -0.071740
  H       0.868497     -0.921959      1.078357
  H      -1.089607     -0.907793     -0.757401
  H      -0.857944      0.928191      1.079952
  H      -1.458114      2.177229      3.285696
  H       0.004383      0.000992      3.317582
  H       1.083754      0.902201     -0.772877
  Al      0.256834     -1.504497      2.564091
  H       1.497058     -2.156249      3.284020
  H      -1.170280     -2.124201      2.308244
  H       1.202821      2.107670      2.293957
12
Coordinates from ORCA-job run E -732.369103108019
  Al     -0.230695      1.507386      2.560485
  Al      0.000227     -0.000634     -0.071734
  H       0.868530     -0.921931      1.078372
  H      -1.089558     -0.907820     -0.757409
  H      -0.857971      0.928165      1.079968
  H      -1.458078      2.177299      3.285683
  H       0.004389      0.000994      3.317662
  H       1.083705      0.902220     -0.772892
  Al      0.256838     -1.504520      2.564098
  H       1.497016     -2.156331      3.284007
  H      -1.170255     -2.124211      2.308199
  H       1.202792      2.107693      2.293920
