92
Coordinates from ORCA-job run E -4952.487786381732
  Zr          0.07720820836584      2.30531784751799      1.41955268964483
  Zr         -0.18054768557959     -2.03187803438704     -1.24777632610026
  Zr          1.80960760693593     -1.07165893136424      1.46507060153239
  Zr         -1.84935135715565      1.27500920980515     -1.28600834531467
  Zr          1.59550752202837      0.93295175640157     -1.69759723972368
  Zr         -1.57194768798670     -0.69122372787100      1.93550727326983
  O          -1.66591958261200      1.03923323001952      0.78781844905971
  O           1.56332915697618     -0.82669343789684     -0.57678081222360
  O          -0.24766630179447     -1.79048650459040      0.84259004479588
  O           0.14997634214783      1.98569742526045     -0.62171511931289
  O          -0.39268477797504     -0.07579862593335     -1.85301774580153
  O           0.37448400606017      0.32114991417893      2.03096644920552
  O          -0.97101145362383      2.57204080283332      3.36429077941587
  O          -1.36569347268090      3.95832923885726      1.02040530191332
  O           1.95365584455338      2.32496865941515      2.63665705677434
  O           1.48079962246791      3.90142365785510      0.62812177916809
  O          -1.97326205322890     -3.19283314265010     -0.45347303835438
  O          -1.81473513169888     -2.08472224671920     -2.78323372216277
  O           1.03987224656912     -3.81449845824187     -0.74076953792330
  O           1.05676445421424     -2.33921649842556     -3.05437297665064
  O           1.35793706901620     -2.19976430948290      3.33135336138263
  O           2.85450240334748      0.26128891693884      2.96343787760400
  O           2.37905159280597     -3.17105644109031      0.97324404608941
  O           3.85569368788262     -0.59276519805334      0.71067568765962
  O          -3.87526496767120      0.58432261102124     -0.59621678800309
  O          -2.56420615886724      3.31511817880850     -0.79519499284640
  O          -2.80893884484318     -0.03383358863809     -2.86653842365182
  O          -1.32862169385505      2.44310323922940     -3.11548756856009
  O           0.90177815338205      2.14573133806037     -3.41833764992958
  O           2.61608376240265      2.79659507963453     -1.00609500770855
  O           2.07214407917782     -0.35114354742871     -3.45716082740221
  O           3.76430686055965      0.47623722105159     -1.29560496770110
  O          -3.69590476662521     -0.61962723038591      1.31874758667826
  O          -2.11808209556459      0.63906648525264      3.61251641338462
  O          -2.60053676046261     -3.06828937849963      1.72746305697939
  O          -0.83394064181817     -1.78679741095521      3.69743298797045
  C          -1.77025178129564      1.80194537705127      3.98163481798561
  C          -2.26024990547136      4.12350849514459      0.13723577591809
  C           2.66494172847769      1.47513658785475      3.26629510081529
  C           2.29470051550728      3.83507954721243     -0.33682300224482
  C          -2.44673026037636     -3.68409493094107      0.60043871938300
  C          -2.56824080890034     -1.19999362369060     -3.30271218077449
  C           1.94104048754180     -4.01412789125220      0.13435892082945
  C           1.79482453625698     -1.55728507833697     -3.73163328362603
  C           0.28316652328051     -2.31496594531151      3.99403964975361
  C           4.35277131422732     -0.17938755018137     -0.38614550574861
  C          -4.34977093326641      0.03623028295820      0.43682641284792
  C          -0.23530066993690      2.61905895341469     -3.73198059892097
  H          -3.09354301106668     -1.49553950147152     -4.25692171312925
  H           2.39791211063323     -5.04423609272940      0.16274825975029
  H           3.19935517506729      1.85559845566166      4.18519308604160
  H          -2.84617364769701      5.08545073147596      0.18269286993533
  H           2.24919092806955     -1.98317733924431     -4.67115383404399
  H          -0.27390381055160      3.26199138007023     -4.65805919374214
  H           2.80982975009292      4.79585725953557     -0.62861897469220
  H           5.44532452813176     -0.40976237094056     -0.55564826300788
  H          -2.78163355969284     -4.75812580786440      0.56704920276468
  H          -5.46359695419557      0.10877619729000      0.59183604036746
  H          -2.21202385695837      2.18242682029037      4.94540651815467
  H           0.31756621522673     -2.93839418526034      4.93014462373900
  Al         -6.66494198531206     -1.88623484228742      6.34370838049946
  Al         -6.02189997875045     -0.26131893550607      3.70453245714179
  Al         -4.00021578621598     -1.71810748630938      5.73544167021529
  Al         -4.80694830486116     -3.97213741045693      7.88790746386476
  Al         -3.33603384736105     -4.11201254834219      3.37718585128409
  Al         -6.37248123413764     -3.26639711507946      1.99521829685934
  Al         -5.47237133511701     -6.06002149222938      5.28857028889582
  Al         -5.24867953585205     -6.33939426996368      1.98197298300428
  H          -5.07821082734354     -7.51731396261530      0.89177335153015
  H          -3.78655486106532     -5.51805093821759      2.22430512045348
  H          -5.73908666295791     -6.77958553024538      3.49946099811854
  H          -6.25707823155114     -5.09831294278440      1.50744788565184
  H          -7.76631788339751     -3.46898540881760      2.78527970782115
  H          -6.00857484611030     -2.81607081072606      0.48555449454620
  H          -6.35423299573536     -1.37592595498102      2.53670223697098
  H          -6.09774408039635      1.29100765350716      3.24453925720494
  H          -4.95364088262570     -3.44346406977945      2.96287210606518
  H          -4.54315999276316     -0.61585391179027      4.40336262102400
  H          -3.31826014007094     -2.72715585753282      4.49137283334486
  H          -2.82567355178124     -0.76492942400861      6.30726426160103
  H          -3.74264385443985     -3.01824550864063      6.98430233649851
  H          -4.93008265907481     -5.37124152021087      7.02531487266112
  H          -4.34630824926445     -4.10257771225695      9.42891191784353
  H          -4.95532031568521     -7.51027724094468      5.77473586994867
  H          -1.92192831651162     -4.80251277948162      3.77477367227592
  H          -4.26478892165767     -5.03519082879970      4.65802436953533
  H          -8.20466869225028     -1.90873347509022      6.79886923812133
  H          -7.04105891247690     -0.64867806836176      4.99087353423924
  H          -6.25643321459823     -3.14764529656726      7.67773884667018
  H          -5.35808743955766     -0.92168139547176      6.85937687688533
  H          -6.93583572745400     -5.36438331865460      5.32649385100985
  H          -5.62399981642377     -2.70666356843961      5.27648752003134
