8
Coordinates from ORCA-job run E -488.167026835026
  Al      0.000069     -0.002505      2.344866
  Al     -0.000313     -0.001970     -0.275659
  H       1.162052     -0.046386      1.034427
  H      -0.064546     -1.439280     -0.952188
  H      -1.161612      0.057218      1.034783
  H       0.063958      1.424238      3.043253
  H      -0.064074     -1.440086      3.020785
  H       0.063226      1.425080     -0.973457
8
Coordinates from ORCA-job run E -488.167034634243
  Al      0.000069     -0.002513      2.344416
  Al     -0.000314     -0.001978     -0.275210
  H       1.162225     -0.046691      1.034424
  H      -0.064486     -1.437911     -0.952103
  H      -1.161812      0.056938      1.034784
  H       0.063904      1.423174      3.042498
  H      -0.064008     -1.438722      3.020705
  H       0.063182      1.424014     -0.972705
8
Coordinates from ORCA-job run E -488.167043643134
  Al      0.000070     -0.002548      2.343020
  Al     -0.000319     -0.002011     -0.273816
  H       1.162786     -0.047737      1.034418
  H      -0.064326     -1.434246     -0.952337
  H      -1.162465      0.055976      1.034787
  H       0.063766      1.420555      3.040401
  H      -0.063828     -1.435071      3.020951
  H       0.063075      1.421391     -0.970615
8
Coordinates from ORCA-job run E -488.167044361718
  Al      0.000070     -0.002564      2.342730
  Al     -0.000320     -0.002027     -0.273526
  H       1.162920     -0.048047      1.034418
  H      -0.064312     -1.433891     -0.952794
  H      -1.162625      0.055687      1.034788
  H       0.063759      1.420516      3.040125
  H      -0.063807     -1.434716      3.021409
  H       0.063075      1.421352     -0.970340
8
Coordinates from ORCA-job run E -488.167046470916
  Al      0.000066     -0.002674      2.341289
  Al     -0.000325     -0.002132     -0.272086
  H       1.163595     -0.049850      1.034418
  H      -0.064258     -1.432423     -0.955775
  H      -1.163457      0.053999      1.034787
  H       0.063745      1.420903      3.038767
  H      -0.063711     -1.433252      3.024397
  H       0.063104      1.421740     -0.968986
8
Coordinates from ORCA-job run E -488.167046546594
  Al      0.000064     -0.002698      2.341285
  Al     -0.000326     -0.002155     -0.272083
  H       1.163599     -0.050069      1.034418
  H      -0.064257     -1.432370     -0.956215
  H      -1.163479      0.053786      1.034787
  H       0.063751      1.421088      3.038615
  H      -0.063706     -1.433198      3.024837
  H       0.063113      1.421926     -0.968834
