16
Coordinates from ORCA-job run E -976.352931621829
  Al      0.687672      1.162117      2.542515
  Al     -0.254538     -0.472028      0.091286
  H       0.489523     -2.006643      0.305731
  H      -1.645295     -0.490123      0.860046
  H       0.892582      0.373858      1.032522
  H      -0.415177      2.289809      2.349606
  H      -0.102094     -0.087950      3.383477
  H       0.034742     -0.074499     -1.417086
  Al      1.142238     -2.750560      1.709666
  H      -0.282778     -2.548602      2.632835
  H       1.236672     -4.295565      1.363319
  H       2.159075      1.316001      3.113559
  Al     -0.453025     -1.606926      4.059232
  H      -2.017805     -1.608759      4.325590
  H       0.711691     -1.998377      5.064759
  H       2.269777     -1.796553      2.297173
16
Coordinates from ORCA-job run E -976.352941545271
  Al      0.686386      1.161832      2.542516
  Al     -0.253635     -0.472152      0.090533
  H       0.489442     -2.006542      0.305705
  H      -1.645869     -0.488733      0.857325
  H       0.892086      0.373942      1.033140
  H      -0.417268      2.289429      2.350832
  H      -0.101917     -0.088197      3.383384
  H       0.036955     -0.074078     -1.417850
  Al      1.141339     -2.751180      1.709044
  H      -0.282568     -2.548222      2.633379
  H       1.234877     -4.296656      1.362870
  H       2.158001      1.317157      3.113935
  Al     -0.451778     -1.606654      4.059262
  H      -2.016739     -1.608660      4.327336
  H       0.713550     -1.996966      5.065064
  H       2.270398     -1.799121      2.297754
16
Coordinates from ORCA-job run E -976.352967702626
  Al      0.678950      1.160802      2.542572
  Al     -0.248430     -0.472663      0.085908
  H       0.488859     -2.006031      0.305604
  H      -1.648851     -0.480468      0.840809
  H       0.889169      0.374616      1.036513
  H      -0.428950      2.287507      2.357877
  H      -0.101020     -0.089491      3.383244
  H       0.050126     -0.071935     -1.421992
  Al      1.136200     -2.755027      1.705508
  H      -0.281345     -2.546365      2.636749
  H       1.224337     -4.302617      1.360035
  H       2.151330      1.324522      3.115594
  Al     -0.444632     -1.605383      4.060106
  H      -2.010029     -1.608639      4.337913
  H       0.723802     -1.989149      5.067160
  H       2.273745     -1.814480      2.300628
16
Coordinates from ORCA-job run E -976.352970090444
  Al      0.677694      1.161200      2.542645
  Al     -0.247577     -0.472551      0.084871
  H       0.488636     -2.006007      0.305648
  H      -1.649182     -0.478918      0.837376
  H       0.888643      0.374901      1.036924
  H      -0.430613      2.287499      2.358970
  H      -0.100979     -0.089587      3.383582
  H       0.052748     -0.071837     -1.422551
  Al      1.135402     -2.755922      1.704972
  H      -0.281132     -2.546349      2.637534
  H       1.222388     -4.303413      1.359286
  H       2.149902      1.326355      3.115448
  Al     -0.443488     -1.605436      4.060880
  H      -2.008533     -1.609130      4.340108
  H       0.725149     -1.988192      5.067884
  H       2.274202     -1.817413      2.300654
16
Coordinates from ORCA-job run E -976.352976447729
  Al      0.672973      1.163688      2.543100
  Al     -0.244488     -0.471760      0.080547
  H       0.487454     -2.005983      0.306040
  H      -1.650361     -0.472979      0.823391
  H       0.886523      0.376210      1.038299
  H      -0.436441      2.288136      2.362814
  H      -0.100993     -0.089738      3.385496
  H       0.063556     -0.072012     -1.424567
  Al      1.132587     -2.759662      1.703111
  H      -0.280240     -2.546735      2.640913
  H       1.214660     -4.306151      1.355850
  H       2.144276      1.334113      3.114183
  Al     -0.439309     -1.606063      4.064957
  H      -2.002551     -1.611824      4.348934
  H       0.729663     -1.985338      5.071408
  H       2.275951     -1.828700      2.299755
16
Coordinates from ORCA-job run E -976.352977542147
  Al      0.672103      1.164558      2.543333
  Al     -0.244041     -0.471427      0.079583
  H       0.486949     -2.005967      0.306328
  H      -1.650803     -0.471969      0.820362
  H       0.885989      0.376493      1.038598
  H      -0.437445      2.288611      2.363338
  H      -0.101047     -0.089687      3.386124
  H       0.066221     -0.072348     -1.425039
  Al      1.132211     -2.760463      1.702876
  H      -0.279944     -2.546921      2.641782
  H       1.212952     -4.306647      1.354821
  H       2.143357      1.335755      3.113681
  Al     -0.438596     -1.606318      4.066264
  H      -2.001524     -1.612669      4.350678
  H       0.730377     -1.985194      5.072523
  H       2.276502     -1.830607      2.298978
16
Coordinates from ORCA-job run E -976.352979673551
  Al      0.670268      1.166467      2.544021
  Al     -0.243298     -0.470605      0.077543
  H       0.485494     -2.005848      0.307266
  H      -1.652247     -0.470128      0.813833
  H       0.884618      0.376967      1.039486
  H      -0.439723      2.289791      2.364262
  H      -0.101132     -0.089589      3.387521
  H       0.072576     -0.073302     -1.426232
  Al      1.131606     -2.762069      1.702507
  H      -0.279057     -2.547183      2.643824
  H       1.209032     -4.307802      1.352308
  H       2.141846      1.338908      3.112600
  Al     -0.437121     -1.606794      4.069286
  H      -1.999772     -1.614505      4.354077
  H       0.732041     -1.985087      5.075199
  H       2.278129     -1.834021      2.296730
16
Coordinates from ORCA-job run E -976.352981331651
  Al      0.668624      1.167872      2.544759
  Al     -0.242788     -0.469885      0.075865
  H       0.483912     -2.005642      0.308363
  H      -1.653954     -0.468742      0.808160
  H       0.883174      0.377185      1.040581
  H      -0.442005      2.290675      2.365054
  H      -0.101124     -0.089602      3.388588
  H       0.078609     -0.074194     -1.427366
  Al      1.131191     -2.763291      1.702241
  H      -0.277998     -2.547138      2.645714
  H       1.205356     -4.308909      1.350023
  H       2.140856      1.341081      3.111843
  Al     -0.435779     -1.606999      4.071808
  H      -1.998582     -1.615884      4.356610
  H       0.733812     -1.984821      5.077537
  H       2.279956     -1.836506      2.294449
16
Coordinates from ORCA-job run E -976.352982714591
  Al      0.667033      1.168753      2.545558
  Al     -0.242440     -0.469256      0.074449
  H       0.482120     -2.005357      0.309658
  H      -1.655923     -0.467589      0.802905
  H       0.881548      0.377154      1.041952
  H      -0.444441      2.291118      2.365894
  H      -0.101020     -0.089768      3.389307
  H       0.084599     -0.074980     -1.428365
  Al      1.130906     -2.764211      1.702011
  H      -0.276662     -2.546769      2.647564
  H       1.201709     -4.309961      1.347980
  H       2.140117      1.342363      3.111428
  Al     -0.434438     -1.606902      4.073854
  H      -1.997680     -1.616805      4.358439
  H       0.735811     -1.984130      5.079499
  H       2.282021     -1.838459      2.292096
16
Coordinates from ORCA-job run E -976.352983415542
  Al      0.666298      1.168747      2.546006
  Al     -0.242418     -0.469010      0.073944
  H       0.480990     -2.005179      0.310488
  H      -1.657068     -0.467122      0.800533
  H       0.880554      0.376932      1.042848
  H      -0.445709      2.290879      2.366405
  H      -0.100913     -0.089995      3.389343
  H       0.087523     -0.075245     -1.428630
  Al      1.130903     -2.764431      1.701913
  H      -0.275700     -2.546351      2.648488
  H       1.199941     -4.310353      1.347246
  H       2.139822      1.342225      3.111521
  Al     -0.433780     -1.606601      4.074467
  H      -1.997340     -1.616882      4.358750
  H       0.736929     -1.983299      5.080091
  H       2.283227     -1.839116      2.290816
16
Coordinates from ORCA-job run E -976.352983974363
  Al      0.665905      1.168392      2.546346
  Al     -0.242577     -0.468886      0.073761
  H       0.479949     -2.005072      0.311221
  H      -1.657924     -0.466824      0.799093
  H       0.879710      0.376619      1.043586
  H      -0.446471      2.290285      2.366847
  H      -0.100840     -0.090276      3.389068
  H       0.089365     -0.075281     -1.428494
  Al      1.131081     -2.764392      1.701851
  H      -0.274729     -2.545945      2.649149
  H       1.198879     -4.310416      1.347079
  H       2.139595      1.341433      3.111852
  Al     -0.433401     -1.606206      4.074545
  H      -1.997128     -1.616640      4.358421
  H       0.737669     -1.982225      5.080120
  H       2.284178     -1.839364      2.289786
16
Coordinates from ORCA-job run E -976.352984395314
  Al      0.665750      1.168018      2.546597
  Al     -0.242826     -0.468800      0.073676
  H       0.478964     -2.005066      0.311840
  H      -1.658539     -0.466508      0.798066
  H       0.879012      0.376338      1.044105
  H      -0.446805      2.289648      2.367229
  H      -0.100863     -0.090539      3.388696
  H       0.090522     -0.075188     -1.428147
  Al      1.131372     -2.764304      1.701784
  H      -0.273793     -2.545718      2.649694
  H       1.198311     -4.310303      1.347211
  H       2.139341      1.340514      3.112255
  Al     -0.433243     -1.605874      4.074469
  H      -1.996935     -1.616389      4.357930
  H       0.738053     -1.981088      5.079953
  H       2.284940     -1.839542      2.288872
16
Coordinates from ORCA-job run E -976.352984674471
  Al      0.665753      1.167850      2.546757
  Al     -0.243065     -0.468717      0.073556
  H       0.478119     -2.005162      0.312274
  H      -1.658950     -0.466115      0.797233
  H       0.878524      0.376187      1.044350
  H      -0.446811      2.289270      2.367517
  H      -0.101007     -0.090713      3.388395
  H       0.091203     -0.075045     -1.427835
  Al      1.131677     -2.764299      1.701687
  H      -0.273026     -2.545760      2.650161
  H       1.198114     -4.310197      1.347400
  H       2.139102      1.339896      3.112607
  Al     -0.433258     -1.605718      4.074483
  H      -1.996788     -1.616344      4.357652
  H       0.738145     -1.980134      5.079891
  H       2.285527     -1.839799      2.288100
16
Coordinates from ORCA-job run E -976.352984869357
  Al      0.665842      1.167876      2.546850
  Al     -0.243257     -0.468640      0.073385
  H       0.477410     -2.005321      0.312545
  H      -1.659270     -0.465672      0.796520
  H       0.878223      0.376149      1.044398
  H      -0.446642      2.289210      2.367714
  H      -0.101250     -0.090800      3.388186
  H       0.091608     -0.074895     -1.427690
  Al      1.131946     -2.764382      1.701553
  H      -0.272436     -2.546012      2.650577
  H       1.198157     -4.310207      1.347528
  H       2.138958      1.339613      3.112912
  Al     -0.433381     -1.605715      4.074620
  H      -1.996758     -1.616511      4.357649
  H       0.738088     -1.979398      5.080029
  H       2.286021     -1.840095      2.287455
16
Coordinates from ORCA-job run E -976.352985080847
  Al      0.666025      1.167991      2.546938
  Al     -0.243484     -0.468555      0.073145
  H       0.476526     -2.005570      0.312802
  H      -1.659698     -0.465075      0.795701
  H       0.877954      0.376151      1.044357
  H      -0.446311      2.289372      2.367906
  H      -0.101664     -0.090864      3.387928
  H       0.091971     -0.074693     -1.427670
  Al      1.132276     -2.764518      1.701338
  H      -0.271754     -2.546472      2.651106
  H       1.198402     -4.310341      1.347634
  H       2.138914      1.339388      3.113341
  Al     -0.433624     -1.605789      4.074855
  H      -1.996891     -1.616876      4.357806
  H       0.737953     -1.978529      5.080379
  H       2.286664     -1.840422      2.286662
16
Coordinates from ORCA-job run E -976.352985299138
  Al      0.666321      1.168084      2.547028
  Al     -0.243763     -0.468485      0.072904
  H       0.475449     -2.005891      0.313062
  H      -1.660263     -0.464386      0.794914
  H       0.877726      0.376148      1.044269
  H      -0.445789      2.289721      2.368080
  H      -0.102266     -0.090925      3.387548
  H       0.092232     -0.074449     -1.427766
  Al      1.132671     -2.764635      1.701049
  H      -0.270959     -2.547093      2.651733
  H       1.198907     -4.310574      1.347736
  H       2.139042      1.339048      3.113948
  Al     -0.433998     -1.605886      4.075101
  H      -1.997260     -1.617393      4.358009
  H       0.737751     -1.977465      5.080900
  H       2.287457     -1.840618      2.285713
16
Coordinates from ORCA-job run E -976.352985463298
  Al      0.666636      1.168040      2.547100
  Al     -0.244006     -0.468464      0.072795
  H       0.474528     -2.006159      0.313250
  H      -1.660763     -0.463881      0.794512
  H       0.877622      0.376105      1.044196
  H      -0.445202      2.290102      2.368169
  H      -0.102878     -0.090978      3.387119
  H       0.092270     -0.074278     -1.427909
  Al      1.132991     -2.764638      1.700793
  H      -0.270305     -2.547630      2.652245
  H       1.199539     -4.310768      1.347801
  H       2.139318      1.338568      3.114546
  Al     -0.434374     -1.605934      4.075221
  H      -1.997751     -1.617876      4.358105
  H       0.737540     -1.976512      5.081384
  H       2.288095     -1.840498      2.284905
16
Coordinates from ORCA-job run E -976.352985564494
  Al      0.666857      1.167869      2.547145
  Al     -0.244146     -0.468475      0.072834
  H       0.473984     -2.006295      0.313341
  H      -1.661039     -0.463666      0.794518
  H       0.877642      0.376029      1.044173
  H      -0.444694      2.290372      2.368170
  H      -0.103350     -0.091019      3.386756
  H       0.092150     -0.074256     -1.427998
  Al      1.133147     -2.764529      1.700649
  H      -0.269938     -2.547930      2.652537
  H       1.200073     -4.310807      1.347804
  H       2.139587      1.338046      3.114937
  Al     -0.434621     -1.605909      4.075208
  H      -1.998137     -1.618215      4.358060
  H       0.737369     -1.975883      5.081689
  H       2.288376     -1.840131      2.284407
