68
Coordinates from ORCA-job run E -3487.826144441904
  Zr          0.08724729757116      1.95543317533767      1.18727285479347
  Zr         -0.06366791952078     -2.41185494854371     -1.15919503272962
  Zr          1.49730859606290     -1.37785638671717      1.69089061044993
  Zr         -1.54206609396033      1.01808314508744     -1.63288369920461
  Zr          1.74356073602758      0.38829917648181     -1.46249744439296
  Zr         -1.85074382763924     -0.79743110514079      1.59358255479059
  O          -1.56673975191098      0.83405610219370      0.38479115568122
  O           1.65993745809252     -1.27412079983935     -0.32965593954558
  O          -0.40490533439701     -1.99024475867785      0.79576168102176
  O           0.35418091970743      1.75366758813604     -0.87756372039526
  O          -0.12867580089794     -0.48329841385807     -1.82617686141212
  O           0.09951683935316      0.07709654361076      1.97292849095153
  O          -1.30029045377311      2.43788546040794      2.79901250003771
  O          -1.02734507157371      3.71784431801068      0.50169077173905
  O           1.46162440384568      2.03582639580087      2.97113741784308
  O           1.80993789662071      3.45210665798331      0.78769721560223
  O          -1.87852258628303     -3.52845409350659     -0.65697503906623
  O          -1.38776938606419     -2.45887150274392     -2.93445232088748
  O           0.96406136239647     -4.17318428651450     -0.41375542428732
  O           1.39459245066214     -2.84021724613583     -2.72833123545257
  O           0.69078920144149     -2.25848321361094      3.51423686745292
  O           2.42318507128834      0.01191704711821      3.10184948016451
  O           1.91996911111362     -3.52403068764032      1.49085389657253
  O           3.73550478944097     -1.45012052120919      1.38236384860831
  O          -3.69508640760538      0.89596323738464     -1.13570268695580
  O          -2.03610451609745      3.12371296376352     -1.39811875792090
  O          -2.45851818024670     -0.49252583238366     -2.93633856723929
  O          -0.78501880915810      1.80137589231771     -3.50894252069043
  O           1.40403572074566      1.39342712360737     -3.40359171898847
  O           2.46102906761959      1.39802012850688      0.40807178709819
  O           2.61336426260937     -0.99216462505618     -2.94830206282532
  O           4.23768472457409     -0.50127688630376     -0.55974432898974
  O          -3.80891705801761     -0.41108572094687      0.67755440610642
  O          -2.56356380018082      0.62543120955932      3.07959185926683
  O          -2.85831630951506     -2.73609298991351      1.19066541727002
  O          -1.49210234739151     -1.81799522090389      3.48937824093421
  C          -2.20967118473860      1.79235295576449      3.35923247596707
  C          -1.70438513745101      3.95303955378407     -0.52041032006797
  C           2.13823952637741      1.15473036354913      3.53811149940180
  C           2.69422569972798      2.66090329912278      0.46346373162669
  C          -2.63074574777134     -3.62154906060113      0.34394747151123
  C          -2.13601252217347     -1.59692052710138     -3.43749428140950
  C           1.62684061185464     -4.37643674801614      0.62913222771721
  C           2.33216434056918     -2.18090843719786     -3.22414541466880
  C          -0.45718606854531     -2.28780657577062      4.00795606350396
  C           4.53565757253992     -1.12960370512848      0.49892938461418
  C          -4.29259163562714      0.37243746850230     -0.17384660289820
  C           0.38579114657284      1.86045245534254     -3.95202824655939
  H          -2.57583004719166     -1.83750799490192     -4.41382287710111
  H           1.98324699298131     -5.39966300566914      0.79693616406591
  H           2.55249118092213      1.41201871081837      4.52193914105185
  H          -2.04920844123999      4.98438228684807     -0.66100368042843
  H           2.96318919145555     -2.67912591467511     -3.96908517776345
  H           0.52466560164897      2.36614819799677     -4.91499135915092
  H           3.70249247926411      3.01113051958810      0.21361627479353
  H           5.58943876748742     -1.40341455352670      0.63824078864099
  H          -3.15714272615959     -4.57598002836371      0.47171688683588
  H          -5.36013866808946      0.60584777022226     -0.07154899311349
  H          -2.74921977108723      2.29458161283155      4.17067665308718
  H          -0.56545653795388     -2.77096344958193      4.98606049210254
  Al          5.88293259256050     -0.62008933591672     -4.21942092229974
  Al          5.04241679272534      0.44485744415812     -1.95419469784022
  H           5.21348157885835      0.83377734279178     -3.75365615665390
  H           3.64576012845902      1.32633759799769     -2.07804493328444
  H           5.67199038760300     -1.08049363864874     -2.59713597023693
  H           7.43428122547982     -0.45682406962975     -4.46680954637648
  H           4.92277919744019     -1.48568443473775     -5.13010177295437
  H           6.27550197916032      1.25529497749541     -1.38296455262355
