88
Coordinates from ORCA-job run_pre E -4708.501165338005
  Zr          0.29208489371330      1.92628488271597      0.90754579784417
  Zr         -0.62035116788968     -2.45124966757733     -1.61059382942983
  Zr          1.74896067029583     -1.57703374406375      0.76214601101582
  Zr         -2.07158541865722      1.01190162308685     -1.46613012226913
  Zr          1.22254830692009      0.39712463481493     -2.35089438221961
  Zr         -1.50966266937492     -0.91035240268426      1.72617354648562
  O          -1.56232247191655      0.80056791914106      0.55180155232250
  O           1.33142478922270     -1.33328914023493     -1.24738633310353
  O          -0.36430554183878     -2.07166315363889      0.42011234160152
  O           0.09523515581864      1.59581010106486     -1.12099035209019
  O          -0.79343840455542     -0.45464432838725     -2.19646318233998
  O           0.55334146106212     -0.05083442153296      1.55321767711144
  O          -0.45626890263131      2.28143144283959      2.96271110379143
  O          -1.04926360493876      3.68992878026239      0.67787195175841
  O           2.34335541782834      1.90962122494830      1.77420090478566
  O           1.65258929189305      3.48337490849818     -0.18515982505934
  O          -2.08914327918282     -3.82080588563201     -0.57584107569745
  O          -2.57209654352148     -2.33732021481818     -2.66522745806738
  O           0.65093228076589     -4.24513064180302     -1.33259850902524
  O           0.22756686070536     -2.78764909423162     -3.62390293636565
  O           1.51188776556665     -2.52804907065119      2.75486036182464
  O           3.20810178777501     -0.18481106324782      1.71276431213685
  O           2.07134705675750     -3.73928376899305      0.35876526166515
  O           3.79559014963748     -1.62701188985930     -0.37506495915630
  O          -3.97842151077335      0.50374521629385     -0.43702917737949
  O          -2.54214189975544      3.10670474202881     -0.92458614908017
  O          -3.35061281930406     -0.20972520649296     -2.86432126653695
  O          -1.75246937729931      2.11512942004420     -3.36377750058534
  O           0.37360358405059      1.62379549189788     -3.95984304777281
  O           2.56881112559740      2.31175974862515     -1.91080578177765
  O           1.42519551213615     -0.92662744845695     -4.08554663555910
  O           3.55659722741200      0.02104106276164     -1.92453784026333
  O          -3.69269376261751     -0.30011310010843      1.67257575747654
  O          -1.60634839529728      0.41099450012360      3.52131123469405
  O          -2.76219111155682     -2.70271534126793      1.28844356352087
  O          -0.64124957907393     -2.15839716172208      3.35190373160362
  C          -1.13129453271616      1.56067047786021      3.76319551719243
  C          -2.04371947817919      3.91145296392587     -0.07671300240602
  C           3.16395075229020      1.01102242646314      2.13571229127702
  C           2.38408622433328      3.38698228497019     -1.18846472042585
  C          -2.68698471687046     -3.72865399514869      0.53546105768684
  C          -3.29080397139347     -1.42855215524197     -3.19851404250150
  C           1.57638372830722     -4.52184732997980     -0.50923696025217
  C           0.97388134025338     -2.08328483320079     -4.37182668153256
  C           0.52101965500087     -2.63052886714307      3.54223599468878
  C           4.21421613857597     -0.93511126873879     -1.32086828898131
  C          -4.35707054504522      0.26708262761324      0.75902780013994
  C          -0.75064871838408      2.19126814148379     -4.13835666162185
  H          -3.95705667512003     -1.75419996692905     -4.04808589926568
  H           1.99836697888374     -5.56560510271352     -0.55229053674464
  H           3.94365785734428      1.31101758249681      2.89210594557474
  H          -2.53625196123872      4.92094848542468      0.01303584895435
  H           1.25846748652439     -2.50472289856659     -5.37525548459214
  H          -0.86367665949432      2.81035166222308     -5.07057647744462
  H           2.96072895998008      4.29495630447416     -1.51799817131229
  H           5.25883892781789     -1.11874332676794     -1.69816589532771
  H          -3.23069225114312     -4.65006525344883      0.89393496447602
  H          -5.40777800875154      0.58529829775181      1.01966260459880
  H          -1.32610095909540      1.98810546090517      4.78760265000862
  H           0.69062353539331     -3.19631948038078      4.50195550467041
  Al          2.39719949115682     -1.28755757493848     -8.56017590285353
  Al          1.48861816334537      1.85457383137568     -7.59065687669757
  Al          4.58419283887218     -1.46710009790442     -6.23435883832526
  Al          4.05509138317385      1.60154461532005     -5.95385806032210
  Al          6.34546620085002      0.04156419375168     -4.55168364994884
  Al          4.49614407503582      1.76752207801958     -2.52302418835010
  Al          4.38642170155985      4.43595783557303     -4.42118864992553
  H           2.39383395470985     -1.48815998029124    -10.16363915847174
  H           1.40501852751851     -2.07991431054837     -7.54920301379850
  H           1.97225914740074      3.08941339231587     -8.51264183287833
  H          -0.07526257573438      1.54690662661657     -7.26758961508074
  H           2.11946155686819      0.39731484209704     -8.28169246966374
  H           3.99279046641182     -1.42905398651553     -7.97211551122019
  H           4.13090576507939     -2.94935259465457     -5.77820094996328
  H           6.11686560804107     -0.93607250718038     -6.55525656002364
  H           5.96882433324939      0.94518765520630     -3.08752730964471
  H           5.79635037641877      1.33340189492406     -5.48438968139391
  H           5.21124444448130     -1.15477834723503     -4.29696998233949
  H           7.92427376408338     -0.27206799781780     -4.52004532461603
  H           4.97573183542729      3.37211835472422     -3.20921599323790
  H           5.51481276286532      5.56168276593934     -4.69758311689431
  H           2.84795591169223      4.79848738723864     -4.03597603245312
  H           4.35673056575765      3.34507912314274     -5.72305191242569
  H           2.29005519076732      1.88222064507973     -6.07468880248005
  H           3.58113689952110     -0.16167936097683     -5.85851514654190
  H           4.42299677703317      1.60064314693055     -7.54040769116525
  H           3.72959325566884      1.47000452365411     -4.13182290346178
  H           5.12961694366337      2.11823430127776     -1.05910133198858
