72
Coordinates from ORCA-job run E -3732.513490255463
  Zr         -0.10490678260044      2.03734977452239      1.55054913139188
  Zr          0.20273008002766     -2.04009431084644     -1.51057604007574
  Zr          1.89842496062863     -1.13736077748590      1.40561948105986
  Zr         -1.71636701935509      1.16852462770859     -1.38841123368432
  Zr          1.73795038297220      1.05525009606790     -1.60057574208992
  Zr         -1.54668471287887     -1.11216393283449      1.62548523090878
  O          -1.68641091087679      0.72224418340033      0.63880336020641
  O           1.81061018527031     -0.76129304063907     -0.63634756520930
  O           0.00595468000429     -1.95182859644049      0.55737674094493
  O           0.19276818308726      1.92762852416616     -0.48725694243455
  O          -0.14835999861489     -0.04485494381952     -1.96066396042008
  O           0.30244886714360      0.05434507016861      1.97467918806774
  O          -1.54351163936080      2.02778594739453      3.27529147813420
  O          -1.51544252172402      3.71100612818851      1.13033771799643
  O           1.42256281893046      2.06411161277584      3.20177808769223
  O           1.43446679059992      3.62717724546670      1.11763507513735
  O          -1.48351671903278     -3.41878530436871     -1.00394054307848
  O          -1.30984939401408     -2.03407957141762     -3.18825388665349
  O           1.56563649924560     -3.74227218986965     -1.06918426923597
  O           1.56704739408613     -2.08481380768290     -3.27185869241022
  O           1.42687762418109     -2.49419298166719      3.10816917558694
  O           2.63642132984268      0.12924100859072      3.13270107730718
  O           2.75392173779110     -3.10613675795479      0.76001839513394
  O           3.89087065918304     -0.31993378801469      0.88546916609607
  O          -3.78872317761006      0.45724604496735     -0.94435919654487
  O          -2.57334111998798      3.13705535887723     -0.79083885056956
  O          -2.48358248149918     -0.07536001534130     -3.11098786362068
  O          -1.16397183895646      2.55327990468920     -3.06192222462442
  O           1.09514146085564      2.43059859680398     -3.22562898325548
  O           2.64324234974908      2.86923106553291     -0.65487841829975
  O           2.41349393553752      0.01388648600024     -3.45487083504178
  O           3.95461922271310      0.69516640354758     -1.15264719141290
  O          -3.62302991859589     -1.09054272090075      0.71867678256678
  O          -2.45824383365494     -0.04832412889900      3.33838470008022
  O          -2.23959163309024     -3.23570443439077      1.13888576652776
  O          -0.81218273276486     -2.25374064088356      3.38277064524759
  C          -2.34296243598168      1.15761835366934      3.72853082335790
  C          -2.35270136763123      3.90377600845767      0.19578306095715
  C           2.23578930947996      1.20518767129926      3.67177847286830
  C           2.27635504165022      3.75727651432702      0.18035589825422
  C          -2.04718828649468     -3.85723324927427      0.05400766547946
  C          -2.10694973701462     -1.16243051381916     -3.65291794614387
  C           2.45242993841193     -3.90988089460595     -0.17316019281198
  C           2.26200578989767     -1.18623023465193     -3.83876225489748
  C           0.32559457050691     -2.71458860404244      3.70098080574861
  C           4.47936973917037      0.10834746931011     -0.16536367787187
  C          -4.26569636480967     -0.33890291868561     -0.08421579148869
  C          -0.04684113551003      2.86627630619834     -3.57268844594917
  H          -2.54874351348664     -1.38592761071436     -4.66829790542681
  H           3.03182013623447     -4.87675030236595     -0.21589019443809
  H           2.66441499145361      1.44083499166003      4.69015105685936
  H          -2.96046343923842      4.85207428437506      0.24733030314326
  H           2.80071887041432     -1.48563102135869     -4.78304586389747
  H          -0.06729317854069      3.60783227143638     -4.42205425958590
  H           2.77370845125188      4.76633416379715      0.08720719269311
  H           5.59745496438806     -0.04449328412407     -0.20019531965986
  H          -2.43111769867688     -4.91818978877973      0.00538905736377
  H          -5.39120839657901     -0.40034440032998     -0.03624554001611
  H          -3.02439434195740      1.47943244480244      4.56745585677526
  H           0.36064207825545     -3.38624441299176      4.60661093217068
  Al         -4.71465480033642     -3.31174313932769      4.38128545779820
  Al         -6.31114806834327     -0.71014128908622      3.33088330379517
  H          -6.45698563158010     -1.80330090406744      1.98464631292574
  H          -7.69054266051282     -0.79676770314027      4.15891442965724
  H          -5.11598209748419     -1.62829415263969      4.18870864736684
  H          -5.93161161121439     -4.00013085659603      5.18457330832227
  H          -4.87217338464887     -3.72641440399330      2.69897524205296
  H          -5.62300247599467      0.64351861401434      2.78080906655203
  Al         -6.14368439196551     -3.46770188212966      1.54825655867353
  H          -5.53412177625837     -3.51286639333236      0.05552995367042
  H          -7.43295143120136     -4.30401869266230      2.03703517122808
  H          -3.14850165347857     -3.38627306509599      4.73738359518080
