80
Coordinates from ORCA-job run E -4224.625053685611
  Zr         -0.20671553460052      2.14111781946672      1.30753485340505
  Zr          0.18290965302101     -2.00120669379563     -1.30950720977092
  Zr          1.81902714707673     -0.72361831447582      1.42402211892890
  Zr         -1.88638401441733      1.02421961776601     -1.42675478512782
  Zr          1.53373276342795      1.14361138915170     -1.70257144515753
  Zr         -1.61195528370520     -0.89943268651066      1.78117483690231
  O          -1.74043272573774      0.82363579015985      0.62018128665357
  O           1.70945493743697     -0.58712428626976     -0.62317518084922
  O          -0.04287443874869     -1.64598634092828      0.71716056678677
  O          -0.05382428859863      2.03153060293446     -0.72352571853270
  O          -0.28893966944741     -0.10939952370897     -1.96892773583492
  O           0.16454030121247      0.37209172577535      2.19988152604183
  O          -1.61899926927253      2.35107559734546      3.04123505238966
  O          -1.92659639354529      3.91313215615018      0.87541205259051
  O           2.06387522549808      1.72686115874944      1.32969570510524
  O           1.12595995476550      4.08716869906985      0.47895984983922
  O          -1.30593235515395     -3.49061379044195     -0.63783033281347
  O          -1.32563937046851     -2.32423317034929     -2.94369398548870
  O           1.62592999261434     -3.54698751780585     -0.74296943894616
  O           1.50285748381009     -2.13848247110101     -3.07048426073709
  O           1.42575452657645     -1.88594129596808      3.26428995466558
  O           2.88447823828205      0.57810878749494      3.03622692157529
  O           2.68215799950419     -2.72167066994091      1.07526070451698
  O           3.92767416591931     -0.24292037794736      0.71788604306352
  O          -3.97789157309284      0.62299694740045     -0.71381572541363
  O          -2.67444806748202      3.09292524845435     -1.09451346811554
  O          -2.75738196971117     -0.59603275945926     -2.63654399494982
  O          -1.52546669266225      2.08640904473301     -3.31008264111749
  O           0.72760870156953      2.15927686835589     -3.50199244476284
  O           2.21025749119046      3.26933667540770     -1.33775782774231
  O           2.27563330276256     -0.03816487892833     -3.39869262457633
  O           3.65889374666630      1.07561509503249     -1.12147406402170
  O          -3.66821386685840     -0.88879006478427      0.95151647840151
  O          -2.49842117858502      0.30009077730700      3.38647198821634
  O          -2.22111159099171     -3.00759845434723      1.38081814897725
  O          -0.81911626562313     -1.90818946656596      3.55555455559494
  C          -2.33758568672325      1.52057297295680      3.67010124407246
  C          -2.62637047635394      3.96716883194886     -0.21356778017309
  C           2.69948531884214      1.67001431655359      2.46950499405198
  C           1.93203820597306      4.17087306886195     -0.51607289353486
  C          -1.91017796554687     -3.78535310912714      0.43886202087347
  C          -2.29827994204502     -1.59787601064864     -3.27293607064837
  C           2.46875667255317     -3.60454020805532      0.20098025622195
  C           2.17095745347022     -1.26433655470438     -3.69119755039380
  C           0.37345482800662     -2.14630426713585      3.91079096210467
  C           4.33488633647570      0.37543661789363     -0.30390715233181
  C          -4.36903545641109     -0.10289732676303      0.24073363043362
  C          -0.44579876247269      2.39139737303945     -3.90094411343319
  H          -2.82733139509044     -1.86457001046475     -4.20907688124635
  H           3.07816243171253     -4.52627172222461      0.26419865274724
  H           3.06218693227017      2.62273218068421      2.89514199580650
  H          -3.23501003057588      4.88163944481606     -0.34506791521978
  H           2.72413715990788     -1.60630569710541     -4.58712811459974
  H          -0.54783585239725      2.91779011185113     -4.86958268358964
  H           2.43774478218829      5.14749361092017     -0.64782009522265
  H           5.42294232736570      0.31771270369216     -0.50878332646621
  H          -2.21206444455509     -4.84522667874482      0.55361773609781
  H          -5.45065029645833     -0.06372351060578      0.47868088238756
  H          -2.87777775274169      1.90759259466099      4.55457994890547
  H           0.50407154688819     -2.64307403980533      4.89129980784542
  Al         -2.55047348844661      5.26648264811558      2.27233640213966
  Al         -3.61082263069686      5.27444747726040      4.76954856707014
  H          -3.23414280934890      6.26399240304879      6.20708436474681
  H          -5.13470999805300      4.94373660699779      5.05773598494079
  H          -2.99983643251839      6.42348925800231      3.73919840200609
  H          -2.90166288895269      6.42928574769313      1.25102140696408
  H          -1.15881431627118      5.06293453098263      3.12442848445122
  H          -2.35124351917223      4.22699378348729      5.07361793274473
  Al         -1.76915345984731      6.10276078162755      7.03755412560950
  H          -0.74445141104597      5.96434682394750      5.66633135897831
  H          -1.41110227315009      7.51317640849387      7.68754478787102
  H          -3.68100089386010      4.31493182396446      3.00287161583097
  Al         -0.52946627561810      4.57723867748062      4.65463766590872
  H           0.48394041947708      3.53396713923754      2.68449550794798
  H          -0.09932937776432      3.23554970626045      5.37863998486889
  H          -1.75262767841899      4.69792890741751      7.79150101717741
  Al          1.24327264388424      5.03419016546202      2.27183933630169
  H           2.83199044230395      4.91401602377984      2.45947228577646
  H           0.86175664545863      5.33267634460995      4.04517108535169
  H           0.39538252776098      6.30819354280501      1.79413000180112
