4
Coordinates from ORCA-job run E -243.960512173859
  Al         -1.36831033316594      0.62311913629511     -0.21520048159046
  H          -0.53561281197715      0.41402657474048      1.14578786056409
  H          -1.29090406234699      2.03605145121392     -0.97926878055602
  H          -2.26562279250992     -0.58354716224951     -0.78524859841762
