88
Coordinates from ORCA-job run E -4708.487166088787
  Zr         -0.19972101841446      2.09172685412282      1.41730377423433
  Zr          0.39426940872396     -2.16382657413769     -1.38895696623129
  Zr          1.69618538623611     -1.12226061400469      1.67399558773410
  Zr         -1.48509015757123      1.06975891188703     -1.62804923591923
  Zr          1.97540506826431      0.94198921671237     -1.42785763690332
  Zr         -1.78278000442337     -1.00790161684144      1.44171126049951
  O          -1.70227586944040      0.81046087340038      0.40812618706775
  O           1.89113690219488     -0.84173628170162     -0.38157428255565
  O          -0.11010784348230     -1.90211085118238      0.61090289339249
  O           0.29942699142177      1.86785282595207     -0.58817253765746
  O           0.11171569850421     -0.18401723966856     -1.98206977070697
  O           0.06957777176404      0.13239579878660      2.00143571261488
  O          -1.73848516996598      2.24340174169204      3.00448705976326
  O          -1.61791479804253      3.71436447164331      0.68388985835931
  O           1.28272161314008      2.18513105580359      3.09073304002549
  O           1.27196794355637      3.74951934214056      0.99850476721167
  O          -1.17542218665044     -3.71121316316790     -0.96652340602542
  O          -1.03164300835798     -2.29416817326972     -3.13903310677041
  O           1.77743652078526     -3.77265618062309     -0.73729725658665
  O           1.87733634350059     -2.24656492256024     -3.04451549621534
  O           0.92221245565459     -2.36902875577053      3.34401902124953
  O           2.29397398606213      0.17407164792089      3.42936399160495
  O           2.58818922033778     -3.12664456105308      1.28175694658676
  O           3.78133555010842     -0.36453307795053      1.36620004279681
  O          -3.72098896707607      0.72393407684183     -1.26376862178081
  O          -2.39102156622978      3.25443969043828     -1.39731280574752
  O          -2.25010214686682     -0.38365243738268     -3.08397092057882
  O          -0.72146258882576      2.30621048281256     -3.29181203823766
  O           1.54078359645142      2.27575090136236     -3.17460068110745
  O           2.73667828402502      2.83909715376037     -0.49024230682283
  O           2.79740937747347     -0.17557712520966     -3.15073725409783
  O           4.07793768509748      0.60956385560115     -0.67037865650935
  O          -3.75078092337610     -0.81162262106138      0.41613772404903
  O          -2.72925253216559      0.20203878966374      3.06557442893604
  O          -2.47408308608731     -3.05566639448863      0.78618904160544
  O          -1.33785688135386     -2.15817777489338      3.29208116668820
  C          -2.56981143349650      1.39602934255913      3.45696303287948
  C          -2.28145600410418      3.99007320769942     -0.33667803380788
  C           1.94231687738600      1.33856506118127      3.77814629622300
  C           2.24002855509182      3.80050114626908      0.18109608434439
  C          -2.02660141465315     -3.90515000725769     -0.04250249730766
  C          -1.85474118674239     -1.46939440315516     -3.63036694006336
  C           2.49385222375082     -3.92404699719691      0.29905387958097
  C           2.61389567560638     -1.35925221002433     -3.57288152199939
  C          -0.24768019729223     -2.58318850065697      3.78527298289330
  C           4.48399951583007      0.02862178789765      0.37849948519201
  C          -4.29533295512664      0.01786583632084     -0.38649331956483
  C           0.44183229180937      2.64858970089388     -3.67740866219195
  H          -2.31199056085150     -1.71597929642775     -4.63031885636795
  H           3.11479841261527     -4.86493053497318      0.34984136189695
  H           2.26273248153921      1.67483042761231      4.80726337040150
  H          -2.84624470297644      4.96460990471302     -0.35226362357618
  H           3.16768800881678     -1.65042409736180     -4.51009305744154
  H           0.48986636164625      3.35868681276893     -4.55182932743505
  H           2.72940186283345      4.80928969511670      0.04838187877612
  H           5.59673609665674     -0.14916450946412      0.45753650502637
  H          -2.44353981187013     -4.95109574951026      0.03704841122948
  H          -5.41572775491006      0.11940634176038     -0.30909620559090
  H          -3.23347507192621      1.74606535251800      4.29944640292992
  H          -0.32931856398307     -3.21991866056567      4.71282925020216
  Al         -3.09822021057388     -1.45651740981413     -7.83612437914597
  Al         -0.82001896910379      0.88764238181692     -6.69893323024942
  Al         -4.73725004954508      1.37247986532909     -8.54064455590948
  Al         -3.64191715473879      2.07507211365252     -5.64278573371535
  Al         -6.11900478650111      3.31522017769081     -7.18322455711814
  Al         -4.07467113590086      5.22201873601017     -5.81373859587116
  Al         -3.50665640246566      4.13054606391642     -2.99623110193771
  H          -3.49421048629193     -2.39643455414258     -6.57649330344687
  H          -2.46457395864637     -1.99418305713093     -9.21858955768254
  H           0.17315701129757      0.11497156998419     -5.67676431212340
  H          -0.33539229391342      1.72795538758618     -7.99119648636882
  H          -1.96570285519579     -0.28445766314381     -7.22225646539423
  H          -4.36467590322499     -0.37098259287958     -8.18448112788976
  H          -4.62136024584368      1.39132960124817    -10.14465573370769
  H          -6.16725009926950      1.37410359530873     -7.64833526637365
  H          -5.47998811756344      4.99442086728406     -6.75256223572447
  H          -5.34802502050303      2.74276997574939     -5.76521922097475
  H          -5.15367001111388      3.34563063707554     -8.55019158745921
  H          -7.70683519410601      3.55502175572501     -7.15254915332931
  H          -4.73225746657561      4.91183011696370     -4.32495793497488
  H          -4.71797855121637      4.51373648902958     -1.98544936024070
  H          -2.29295020018902      5.05238271229098     -3.59793478788312
  H          -3.61724073289928      2.66219272901381     -3.89385685364245
  H          -1.86003596293719      1.89598260503309     -5.77672407201484
  H          -3.51645396960264      1.91266216609348     -7.49902365665024
  H          -4.10050926419780      0.54171147138399     -5.38611473608384
  H          -3.17193764672708      3.80494880271348     -6.13681838543587
  H          -3.31134733619484      6.59645500650612     -6.16184871878763
