8
Coordinates from ORCA-job run E -487.785581957143
  Al          0.00003831549331     -0.00323550166806      2.33402792932837
  Al         -0.00034831755285     -0.00269244911886     -0.26482544571284
  H           1.14338598032585     -0.05393547029125      1.03442030398935
  H          -0.06361270939795     -1.41704817667883     -0.94537145608308
  H          -1.14369471095823      0.04803648462812      1.03478218910450
  H           0.06330064272134      1.41111668896530      3.01458155605255
  H          -0.06302150380758     -1.41787508916973      3.01400262014033
  H           0.06271230317608      1.41194351333334     -0.94480769681918
