8
Coordinates from ORCA-job run E -487.785111121026
  Al      0.000064     -0.002698      2.341285
  Al     -0.000326     -0.002155     -0.272083
  H       1.163599     -0.050069      1.034418
  H      -0.064257     -1.432370     -0.956215
  H      -1.163479      0.053786      1.034787
  H       0.063751      1.421088      3.038615
  H      -0.063706     -1.433198      3.024837
  H       0.063113      1.421926     -0.968834
8
Coordinates from ORCA-job run E -487.785357860648
  Al      0.000063     -0.002720      2.339835
  Al     -0.000327     -0.002178     -0.270633
  H       1.158355     -0.049987      1.034419
  H      -0.064035     -1.427336     -0.951866
  H      -1.158250      0.053384      1.034786
  H       0.063536      1.416237      3.033812
  H      -0.063484     -1.428163      3.020490
  H       0.062901      1.417072     -0.964033
8
Coordinates from ORCA-job run E -487.785571667276
  Al      0.000060     -0.002781      2.336224
  Al     -0.000329     -0.002239     -0.267021
  H       1.146015     -0.049887      1.034421
  H      -0.063593     -1.417212     -0.942291
  H      -1.145950      0.052342      1.034784
  H       0.063112      1.406646      3.022921
  H      -0.063041     -1.418035      3.010920
  H       0.062485      1.407477     -0.953147
8
Coordinates from ORCA-job run E -487.785576124296
  Al      0.000060     -0.002794      2.335849
  Al     -0.000329     -0.002252     -0.266647
  H       1.145255     -0.049982      1.034421
  H      -0.063620     -1.417769     -0.942162
  H      -1.145202      0.052172      1.034783
  H       0.063145      1.407347      3.022444
  H      -0.063067     -1.418592      3.010790
  H       0.062518      1.408178     -0.952669
8
Coordinates from ORCA-job run E -487.785581265577
  Al      0.000057     -0.002843      2.334611
  Al     -0.000331     -0.002301     -0.265408
  H       1.142893     -0.050349      1.034421
  H      -0.063676     -1.418865     -0.941487
  H      -1.142883      0.051570      1.034783
  H       0.063221      1.408978      3.020476
  H      -0.063119     -1.419688      3.010116
  H       0.062598      1.409808     -0.950701
8
Coordinates from ORCA-job run E -487.785581376411
  Al      0.000056     -0.002856      2.334503
  Al     -0.000331     -0.002314     -0.265300
  H       1.142963     -0.050474      1.034421
  H      -0.063675     -1.418826     -0.941504
  H      -1.142964      0.051449      1.034783
  H       0.063225      1.409075      3.020160
  H      -0.063118     -1.419649      3.010133
  H       0.062603      1.409904     -0.950386
8
Coordinates from ORCA-job run E -487.785581739700
  Al      0.000052     -0.002950      2.333869
  Al     -0.000335     -0.002408     -0.264667
  H       1.143591     -0.051377      1.034421
  H      -0.063665     -1.418431     -0.941788
  H      -1.143671      0.050585      1.034783
  H       0.063252      1.409658      3.018042
  H      -0.063100     -1.419254      3.010418
  H       0.062637      1.410486     -0.948268
8
Coordinates from ORCA-job run E -487.785581756783
  Al      0.000051     -0.002963      2.333863
  Al     -0.000336     -0.002421     -0.264660
  H       1.143611     -0.051500      1.034421
  H      -0.063663     -1.418362     -0.941936
  H      -1.143702      0.050465      1.034783
  H       0.063254      1.409724      3.017855
  H      -0.063096     -1.419186      3.010566
  H       0.062641      1.410553     -0.948081
8
Coordinates from ORCA-job run E -487.785581924313
  Al      0.000042     -0.003166      2.333911
  Al     -0.000345     -0.002624     -0.264708
  H       1.143621     -0.053319      1.034420
  H      -0.063626     -1.417365     -0.944359
  H      -1.143874      0.048663      1.034782
  H       0.063288      1.410742      3.015280
  H      -0.063040     -1.418191      3.012990
  H       0.062694      1.411570     -0.945506
8
Coordinates from ORCA-job run E -487.785581951864
  Al      0.000039     -0.003225      2.333985
  Al     -0.000348     -0.002682     -0.264783
  H       1.143484     -0.053836      1.034420
  H      -0.063615     -1.417096     -0.945156
  H      -1.143783      0.048142      1.034782
  H       0.063299      1.411051      3.014645
  H      -0.063025     -1.417923      3.013787
  H       0.062710      1.411878     -0.944871
8
Coordinates from ORCA-job run E -487.785581957143
  Al      0.000038     -0.003236      2.334028
  Al     -0.000348     -0.002692     -0.264825
  H       1.143386     -0.053935      1.034420
  H      -0.063613     -1.417048     -0.945371
  H      -1.143695      0.048036      1.034782
  H       0.063301      1.411117      3.014582
  H      -0.063022     -1.417875      3.014003
  H       0.062712      1.411944     -0.944808
