88
Coordinates from ORCA-job run E -4708.498479860175
  Zr          0.35353001334134      1.90468870957027      0.99203156226102
  Zr         -0.62892555129638     -2.32215531416084     -1.75032246150509
  Zr          1.73735001168764     -1.61957081520282      0.68695725464106
  Zr         -2.01691759759876      1.17960810830050     -1.43248189637590
  Zr          1.27357840269203      0.51740838637614     -2.32869074071148
  Zr         -1.51744312617943     -0.93103573245602      1.65208910593755
  O          -1.53471428658406      0.84059382092440      0.57633289432218
  O           1.35839385046532     -1.27955198445099     -1.32501829740226
  O          -0.38481725397756     -2.05033204267083      0.30072637374720
  O           0.16949638586309      1.67898942627474     -1.04480013958980
  O          -0.76157899742694     -0.29416517193487     -2.20612524311485
  O           0.56802453497967     -0.10806783700924      1.53441308234598
  O          -0.41103441748404      2.16560505720412      3.06156118750412
  O          -0.93410262744617      3.71737467503540      0.85747957714553
  O           2.40840995226192      1.79420133631170      1.82963845880950
  O           1.74890554917986      3.51459693288400     -0.01555457064201
  O          -2.20776771508277     -3.60802383016877     -0.82362144058799
  O          -2.52039785043243     -2.11018701279635     -2.93601610565893
  O           0.57179637113832     -4.16742541116820     -1.52202373801324
  O           0.23425115180463     -2.60145193186095     -3.77255285852006
  O           1.44840017437085     -2.68500347146673      2.61037738131579
  O           3.20562552093319     -0.32772344284483      1.79261166546398
  O           2.03692598764315     -3.75527514710685      0.15887145124736
  O           3.81643961127923     -1.57636311676566     -0.37932135500516
  O          -3.96012935335854      0.75564760677193     -0.43994950042583
  O          -2.40997727367167      3.26511805315028     -0.80409138944987
  O          -3.30456990690594      0.02355325815078     -2.85516157262508
  O          -1.65582796048348      2.36570978713788     -3.27389337294657
  O           0.46724675527849      1.86193050801714     -3.86552687404614
  O           2.61038901886793      2.43319685971042     -1.82884550604195
  O           1.44941791651980     -0.73146689722728     -4.12659132467618
  O           3.60523452013825      0.14687289933505     -1.84226025269163
  O          -3.69109594572903     -0.33936919275635      1.53555397818937
  O          -1.63798392675976      0.31184313103825      3.49950398652327
  O          -2.77037799782536     -2.73123488812011      1.19835584709745
  O          -0.68042585625735     -2.24467062460258      3.24543523993814
  C          -1.13664285159594      1.43510906729179      3.80554677951007
  C          -1.90088376067236      4.00855257814871      0.09130283625458
  C           3.18273532917118      0.86373467126820      2.22039190381466
  C           2.47909195104293      3.45249106881380     -1.02280431947520
  C          -2.75444577213221     -3.64879787231478      0.32010040699451
  C          -3.22914406619837     -1.14180695715570     -3.35323018570714
  C           1.51082202481175     -4.48981160452379     -0.73200611933977
  C           0.99217780122374     -1.86766876622554     -4.47537966375696
  C           0.45766180681127     -2.78248800743218      3.39912248669312
  C           4.25998971862563     -0.82619361335541     -1.26851414195015
  C          -4.34201827525007      0.36657079823759      0.71132143198746
  C          -0.63179154449137      2.48306526361778     -4.01099669008706
  H          -3.87888202838897     -1.34570001621218     -4.25235442100522
  H           1.91483029730986     -5.53786547783510     -0.82803252680821
  H           3.93977576697084      1.13561435248873      3.01059135850142
  H          -2.35726278810474      5.03166274743991      0.21704394703603
  H           1.28394836421426     -2.25323898006370     -5.49225465912383
  H          -0.70040902046915      3.20237491944931     -4.87439921926478
  H           3.11183462876791      4.35035861245153     -1.27172562903299
  H           5.32251919980550     -0.96856726837867     -1.61326850261392
  H          -3.31030053039693     -4.59685459210355      0.57753420445405
  H          -5.38600249237379      0.66695360425636      1.01822262373111
  H          -1.35465067052305      1.82595656737192      4.84026701483155
  H           0.60575662068213     -3.40853033585684      4.32453364168859
  Al          2.64085095342759     -1.66945318561417     -8.56612164238926
  Al          1.04939895279201      1.07770714837251     -7.19999497011870
  Al          4.77570600281163     -1.53696220724463     -6.03143305156719
  Al          3.91075810381509      1.47675415562506     -6.01047561446675
  Al          6.42519622434382      0.28819891283480     -4.57874432035439
  Al          4.47830695077255      1.91250150977201     -2.53900811068143
  Al          4.09705699557994      4.43526717058620     -4.59248540101857
  H           2.90696322726128     -1.29920779722046    -10.11413035001463
  H           1.74474503284447     -2.91253809218493     -8.03652700082489
  H           1.00635077952148      2.21173282781457     -8.35412611996669
  H          -0.29861355949189      0.46251869208269     -6.52248128622628
  H           1.90382354091752     -0.30331236296278     -7.78263995546970
  H           4.11875112085186     -1.70236356442460     -7.72229328796633
  H           4.42839739094645     -2.98395951222260     -5.41507124745972
  H           6.24646463998084     -0.91116771563301     -6.45982742644002
  H           6.01008294861471      1.27157565270180     -3.19886922252026
  H           5.68857667053638      1.41141592307903     -5.60087266986137
  H           5.43962541473847     -1.00859683639191     -4.16268810947595
  H           8.02719712569472      0.14996526022304     -4.63072653810050
  H           4.79640764184805      3.54682529970875     -3.29522782415862
  H           5.16121003788162      5.54915556417529     -5.08136439851688
  H           2.55420930931574      4.76826899750250     -4.18752798686950
  H           4.03891732952017      3.22888315707556     -5.79490891285337
  H           2.13292795674333      1.55559855267068     -5.96807799612985
  H           3.68005423286588     -0.28814594374738     -5.70414327290383
  H           4.14729999535787      1.40056851908573     -7.61976731000414
  H           3.69075313741194      1.46413807609173     -4.07428671831482
  H           5.21962339947617      2.28599799364368     -1.13758062256459
