32
Coordinates from ORCA-job run E -1952.813004161069
  Al      0.619946     -2.398212      2.280335
  Al     -0.600320     -2.084834     -0.685361
  Al      1.745178     -2.665933     -1.841741
  Al      1.263082     -4.966437      2.105028
  Al     -1.284004     -5.212232     -0.222829
  Al      1.481532     -5.975062     -0.916697
  Al     -0.081363     -7.676772      1.265197
  Al      1.627819     -0.198441     -0.010185
  H      -0.221432     -5.986359     -1.307634
  H       0.244081     -2.128294     -2.385841
  H      -0.653978     -2.254182      1.189041
  H       1.016255     -7.526529      0.039225
  H      -1.395115     -6.900396      0.639798
  H       2.383584     -6.822707     -1.903007
  H      -2.865436     -5.217531     -0.276822
  H       0.061877     -0.413961     -0.504844
  H       2.080547      1.315482      0.132497
  H       2.408540     -1.028592     -1.223112
  H       1.654903     -1.061785      1.393451
  H      -0.178145     -4.808239      0.929463
  H       2.092099     -5.449290      0.550107
  H       1.043568     -2.615259     -0.291706
  H       0.104745     -4.010396      2.966790
  H      -0.945477     -3.735106     -1.017360
  H       1.495636     -4.393891     -1.633812
  H       2.478474     -5.278684      3.082475
  H       0.661521     -1.583252      3.637594
  H       3.000117     -2.764174     -2.806663
  H      -0.291432     -9.140770      1.833016
  H       0.476902     -6.571301      2.374101
  H      -2.044933     -1.481348     -0.949998
  H       1.820637     -3.348572      1.585775
32
Coordinates from ORCA-job run E -1952.813009579120
  Al      0.619821     -2.398026      2.280224
  Al     -0.600198     -2.085110     -0.685112
  Al      1.745230     -2.666427     -1.841451
  Al      1.263234     -4.966372      2.105340
  Al     -1.283995     -5.212085     -0.223020
  Al      1.481457     -5.974651     -0.916890
  Al     -0.081341     -7.676418      1.264840
  Al      1.627805     -0.198899     -0.010553
  H      -0.221594     -5.986181     -1.308260
  H       0.244364     -2.128294     -2.385723
  H      -0.654106     -2.254233      1.189053
  H       1.016319     -7.526439      0.038648
  H      -1.395283     -6.900038      0.639921
  H       2.383405     -6.822109     -1.903319
  H      -2.865303     -5.217332     -0.276922
  H       0.061774     -0.414307     -0.504546
  H       2.080376      1.315066      0.132366
  H       2.408550     -1.029083     -1.223300
  H       1.655084     -1.062088      1.393318
  H      -0.178463     -4.808233      0.929990
  H       2.092200     -5.449357      0.550285
  H       1.043512     -2.615967     -0.291503
  H       0.104863     -4.010208      2.967805
  H      -0.945069     -3.735087     -1.017351
  H       1.495415     -4.393725     -1.633493
  H       2.479054     -5.278305      3.082157
  H       0.661004     -1.582978      3.637115
  H       3.000076     -2.764231     -2.806291
  H      -0.291466     -9.140289      1.832587
  H       0.477115     -6.571122      2.374370
  H      -2.044768     -1.481957     -0.949971
  H       1.820337     -3.348576      1.585967
32
Coordinates from ORCA-job run E -1952.813029593287
  Al      0.618925     -2.396677      2.279164
  Al     -0.599188     -2.086953     -0.683224
  Al      1.745725     -2.669782     -1.839408
  Al      1.264417     -4.966013      2.107563
  Al     -1.283852     -5.211148     -0.224574
  Al      1.480781     -5.971973     -0.918172
  Al     -0.081207     -7.673650      1.262416
  Al      1.627703     -0.202059     -0.013165
  H      -0.222895     -5.985241     -1.312910
  H       0.246619     -2.127828     -2.384830
  H      -0.655170     -2.254523      1.188988
  H       1.016613     -7.526103      0.034713
  H      -1.396620     -6.897378      0.641094
  H       2.381923     -6.818265     -1.905537
  H      -2.864424     -5.215896     -0.277904
  H       0.060829     -0.416583     -0.502078
  H       2.078879      1.312220      0.131925
  H       2.408697     -1.032144     -1.224705
  H       1.656697     -1.064345      1.392260
  H      -0.181165     -4.808416      0.933949
  H       2.092858     -5.450270      0.551411
  H       1.043273     -2.620937     -0.290083
  H       0.106055     -4.009067      2.975158
  H      -0.941593     -3.735147     -1.017504
  H       1.493606     -4.392612     -1.631226
  H       2.483760     -5.275437      3.079607
  H       0.656949     -1.580812      3.633759
  H       3.000095     -2.764139     -2.803792
  H      -0.291807     -9.136663      1.829990
  H       0.478684     -6.569938      2.376381
  H      -2.043735     -1.486494     -0.949926
  H       1.817979     -3.348789      1.586938
32
Coordinates from ORCA-job run E -1952.813031878292
  Al      0.618855     -2.396536      2.278817
  Al     -0.598970     -2.086983     -0.682964
  Al      1.745873     -2.669908     -1.839268
  Al      1.264613     -4.966071      2.107754
  Al     -1.283754     -5.211167     -0.224898
  Al      1.480596     -5.971994     -0.918184
  Al     -0.081231     -7.673182      1.262334
  Al      1.627684     -0.202220     -0.013365
  H      -0.223124     -5.985487     -1.313461
  H       0.247023     -2.127341     -2.384710
  H      -0.655408     -2.254485      1.188856
  H       1.016484     -7.526376      0.034547
  H      -1.396883     -6.897051      0.641469
  H       2.381594     -6.818336     -1.905704
  H      -2.864377     -5.215740     -0.278292
  H       0.060536     -0.416590     -0.501529
  H       2.078482      1.312098      0.132396
  H       2.408772     -1.031977     -1.224891
  H       1.657138     -1.064657      1.392068
  H      -0.181799     -4.808638      0.934494
  H       2.092850     -5.450760      0.551399
  H       1.043415     -2.621258     -0.289980
  H       0.106509     -4.009153      2.975851
  H      -0.940720     -3.735336     -1.017739
  H       1.493203     -4.392580     -1.631038
  H       2.484706     -5.275032      3.079098
  H       0.656242     -1.580457      3.633475
  H       3.000354     -2.763709     -2.803702
  H      -0.291939     -9.136149      1.830218
  H       0.478880     -6.569899      2.376654
  H      -2.043777     -1.487106     -0.950040
  H       1.817581     -3.348978      1.586615
32
Coordinates from ORCA-job run E -1952.813038604715
  Al      0.618803     -2.396186      2.277076
  Al     -0.598019     -2.086509     -0.682041
  Al      1.746529     -2.669546     -1.839188
  Al      1.265405     -4.966521      2.108132
  Al     -1.283166     -5.211541     -0.226337
  Al      1.479719     -5.973078     -0.917766
  Al     -0.081471     -7.671310      1.262717
  Al      1.627584     -0.202097     -0.013580
  H      -0.223981     -5.987330     -1.315065
  H       0.248597     -2.124618     -2.384281
  H      -0.656468     -2.254210      1.188132
  H       1.015598     -7.528133      0.034891
  H      -1.398057     -6.896008      0.643288
  H       2.380090     -6.820067     -1.905886
  H      -2.864273     -5.215172     -0.280459
  H       0.059062     -0.415826     -0.499035
  H       2.076527      1.312374      0.135521
  H       2.409118     -1.029866     -1.225551
  H       1.659245     -1.065846      1.391329
  H      -0.184659     -4.809896      0.936472
  H       2.092551     -5.453352      0.550992
  H       1.044412     -2.621357     -0.289891
  H       0.108923     -4.010057      2.977357
  H      -0.936515     -3.736392     -1.019120
  H       1.491354     -4.392774     -1.630718
  H       2.488724     -5.273572      3.076864
  H       0.653360     -1.579216      3.632741
  H       3.001772     -2.761359     -2.803925
  H      -0.292642     -9.134207      1.832519
  H       0.479566     -6.569993      2.377612
  H      -2.044334     -1.489348     -0.950738
  H       1.816052     -3.350049      1.584217
32
Coordinates from ORCA-job run E -1952.813039580343
  Al      0.618963     -2.396262      2.276717
  Al     -0.597886     -2.086179     -0.681977
  Al      1.746568     -2.669189     -1.839438
  Al      1.265525     -4.966650      2.108020
  Al     -1.282985     -5.211635     -0.226589
  Al      1.479575     -5.973643     -0.917484
  Al     -0.081612     -7.671081      1.263090
  Al      1.627538     -0.201754     -0.013285
  H      -0.223990     -5.987940     -1.314895
  H       0.248676     -2.124028     -2.384248
  H      -0.656636     -2.254181      1.188024
  H       1.015336     -7.528620      0.035346
  H      -1.398297     -6.896018      0.643602
  H       2.379809     -6.820840     -1.905659
  H      -2.864190     -5.215001     -0.281146
  H       0.058731     -0.415372     -0.498571
  H       2.076055      1.312752      0.136543
  H       2.409113     -1.028956     -1.225634
  H       1.659664     -1.066053      1.391287
  H      -0.185135     -4.810173      0.936689
  H       2.092393     -5.453878      0.550850
  H       1.044774     -2.620744     -0.290054
  H       0.109540     -4.010392      2.976893
  H      -0.935576     -3.736591     -1.019479
  H       1.490984     -4.392934     -1.630892
  H       2.489254     -5.273464      3.076481
  H       0.652982     -1.579272      3.632667
  H       3.001998     -2.761035     -2.804102
  H      -0.292819     -9.133939      1.833403
  H       0.479646     -6.570050      2.377675
  H      -2.044534     -1.489635     -0.950916
  H       1.815943     -3.350307      1.583362
32
Coordinates from ORCA-job run E -1952.813040950191
  Al      0.619317     -2.396436      2.276299
  Al     -0.597776     -2.085713     -0.681925
  Al      1.746469     -2.668814     -1.839890
  Al      1.265693     -4.966777      2.107857
  Al     -1.282706     -5.211595     -0.226895
  Al      1.479449     -5.974393     -0.917053
  Al     -0.081894     -7.670858      1.263633
  Al      1.627436     -0.201285     -0.012737
  H      -0.223845     -5.988738     -1.314370
  H       0.248548     -2.123474     -2.384221
  H      -0.656802     -2.254263      1.188010
  H       1.015013     -7.529193      0.035932
  H      -1.398660     -6.896121      0.643871
  H       2.379469     -6.821738     -1.905288
  H      -2.863910     -5.214548     -0.282294
  H       0.058297     -0.414743     -0.497989
  H       2.075333      1.313303      0.138022
  H       2.408950     -1.027702     -1.225796
  H       1.660180     -1.066442      1.391316
  H      -0.185656     -4.810449      0.937010
  H       2.092168     -5.454375      0.550761
  H       1.045336     -2.619654     -0.290351
  H       0.110404     -4.010779      2.975998
  H      -0.934227     -3.736716     -1.019911
  H       1.490479     -4.393159     -1.631194
  H       2.489715     -5.273397      3.076025
  H       0.652588     -1.579600      3.632366
  H       3.002099     -2.761109     -2.804150
  H      -0.293067     -9.133550      1.834549
  H       0.479797     -6.570023      2.377715
  H      -2.044750     -1.490110     -0.951134
  H       1.815960     -3.350608      1.582113
32
Coordinates from ORCA-job run E -1952.813041751937
  Al      0.619680     -2.396566      2.276014
  Al     -0.597721     -2.085436     -0.681826
  Al      1.746271     -2.668812     -1.840227
  Al      1.265877     -4.966812      2.107833
  Al     -1.282471     -5.211341     -0.227143
  Al      1.479394     -5.974800     -0.916762
  Al     -0.082190     -7.670671      1.263935
  Al      1.627319     -0.201088     -0.012340
  H      -0.223667     -5.989239     -1.313900
  H       0.248332     -2.123310     -2.384188
  H      -0.656905     -2.254458      1.188121
  H       1.014819     -7.529509      0.036148
  H      -1.399027     -6.896172      0.643959
  H       2.379221     -6.822053     -1.905103
  H      -2.863542     -5.213923     -0.283389
  H       0.057958     -0.414385     -0.497502
  H       2.074639      1.313610      0.139152
  H       2.408657     -1.026889     -1.226059
  H       1.660600     -1.066927      1.391339
  H      -0.186066     -4.810576      0.937461
  H       2.092022     -5.454557      0.550832
  H       1.045801     -2.618822     -0.290562
  H       0.111089     -4.010922      2.975465
  H      -0.932992     -3.736679     -1.020165
  H       1.490023     -4.393292     -1.631358
  H       2.490044     -5.273319      3.075671
  H       0.652250     -1.579911      3.631869
  H       3.002062     -2.761660     -2.803861
  H      -0.293265     -9.133132      1.835202
  H       0.480018     -6.569879      2.377771
  H      -2.044849     -1.490733     -0.951276
  H       1.816028     -3.350796      1.581169
32
Coordinates from ORCA-job run E -1952.813042642344
  Al      0.620066     -2.396636      2.275813
  Al     -0.597698     -2.085318     -0.681652
  Al      1.746000     -2.669162     -1.840449
  Al      1.266097     -4.966784      2.107957
  Al     -1.282272     -5.210876     -0.227353
  Al      1.479383     -5.974911     -0.916604
  Al     -0.082515     -7.670492      1.264001
  Al      1.627187     -0.201141     -0.012122
  H      -0.223507     -5.989505     -1.313499
  H       0.248082     -2.123467     -2.384159
  H      -0.656960     -2.254758      1.188320
  H       1.014719     -7.529624      0.036030
  H      -1.399435     -6.896163      0.643912
  H       2.379048     -6.821846     -1.905148
  H      -2.863131     -5.213110     -0.284483
  H       0.057673     -0.414273     -0.497051
  H       2.073897      1.313699      0.140016
  H       2.408211     -1.026402     -1.226477
  H       1.661005     -1.067522      1.391295
  H      -0.186480     -4.810609      0.938098
  H       2.091938     -5.454489      0.551016
  H       1.046204     -2.618211     -0.290675
  H       0.111638     -4.010837      2.975350
  H      -0.931733     -3.736527     -1.020267
  H       1.489560     -4.393356     -1.631367
  H       2.490375     -5.273226      3.075394
  H       0.651917     -1.580089      3.631242
  H       3.002042     -2.762601     -2.803221
  H      -0.293421     -9.132707      1.835440
  H       0.480315     -6.569667      2.377837
  H      -2.044905     -1.491535     -0.951378
  H       1.816108     -3.350914      1.580460
