12
Coordinates from ORCA-job run E -732.259481419401
  Al         -0.18572043747196      1.53938479063579      2.57091120929207
  Al          0.02057158587226     -0.02588312425165     -0.08730260058705
  H           0.89868126275703     -0.99891798913071      1.02988300955611
  H          -1.10523476165178     -0.90684182330282     -0.77514240677604
  H          -0.81137755601618      0.90450855928984      1.09831868219384
  H          -1.46595271899136      2.06980086568942      3.34385114395710
  H           0.25248206485381      0.05304772868079      3.30901348666611
  H           1.12210811105101      0.87669008038270     -0.78688971557885
  Al          0.30205100166224     -1.49284524945626      2.56670033035349
  H           1.52262951581371     -2.24715984137852      3.24471421994766
  H          -1.19869070717231     -1.98138896939969      2.39153221814002
  H           1.17542263929350      2.29600497224111      2.26471042283552
