12
Coordinates from ORCA-job run E -732.254518001395
  Al     -0.229340      1.518700      2.565120
  Al      0.000110     -0.000500     -0.083080
  H       0.872650     -0.936120      1.070100
  H      -1.104360     -0.908610     -0.770600
  H      -0.863310      0.941430      1.071970
  H      -1.473730      2.184180      3.291100
  H       0.424070      0.079110      3.330390
  H       1.099010      0.904060     -0.784020
  Al      0.255500     -1.515920      2.569270
  H       1.513500     -2.162230      3.289110
  H      -1.181020     -2.143500      2.318490
  H       1.213890      2.125800      2.302450
12
Coordinates from ORCA-job run E -732.255593874499
  Al     -0.223796      1.516356      2.566441
  Al      0.003583     -0.001472     -0.083231
  H       0.876084     -0.936663      1.067280
  H      -1.102455     -0.909143     -0.769038
  H      -0.860012      0.937790      1.075683
  H      -1.471204      2.172320      3.294545
  H       0.402423      0.071155      3.328538
  H       1.099844      0.905033     -0.785442
  Al      0.259053     -1.511729      2.568798
  H       1.514211     -2.167973      3.286041
  H      -1.183450     -2.127219      2.327468
  H       1.212687      2.137945      2.293219
12
Coordinates from ORCA-job run E -732.257927367739
  Al     -0.208048      1.509782      2.571464
  Al      0.015963     -0.005976     -0.084568
  H       0.889318     -0.940013      1.059646
  H      -1.093644     -0.914548     -0.763997
  H      -0.848216      0.925640      1.085708
  H      -1.467111      2.124602      3.312204
  H       0.351513      0.051792      3.312467
  H       1.104790      0.904940     -0.791664
  Al      0.268974     -1.498177      2.567686
  H       1.510290     -2.194873      3.274228
  H      -1.197356     -2.062465      2.359395
  H       1.200498      2.185695      2.267732
12
Coordinates from ORCA-job run E -732.258778067242
  Al     -0.197579      1.508281      2.574821
  Al      0.024685     -0.010337     -0.085694
  H       0.900177     -0.945302      1.054793
  H      -1.087102     -0.920320     -0.759907
  H      -0.838808      0.916501      1.091764
  H      -1.465427      2.088582      3.327639
  H       0.321764      0.043976      3.299668
  H       1.108886      0.902301     -0.797244
  Al      0.276328     -1.490012      2.566868
  H       1.504775     -2.219898      3.263210
  H      -1.207977     -2.012227      2.380864
  H       1.187248      2.224855      2.253518
12
Coordinates from ORCA-job run E -732.259149758939
  Al     -0.188207      1.511812      2.576937
  Al      0.031687     -0.015276     -0.086288
  H       0.910496     -0.954282      1.050290
  H      -1.082725     -0.925450     -0.755934
  H      -0.829401      0.907969      1.096802
  H      -1.463739      2.058900      3.342320
  H       0.293283      0.042193      3.291858
  H       1.112574      0.897614     -0.802459
  Al      0.284455     -1.485342      2.565957
  H       1.500013     -2.246242      3.250793
  H      -1.215233     -1.969293      2.396392
  H       1.173767      2.263798      2.243631
12
Coordinates from ORCA-job run E -732.259279858317
  Al     -0.185182      1.517972      2.576576
  Al      0.033034     -0.017877     -0.085957
  H       0.914324     -0.961391      1.048385
  H      -1.082959     -0.926821     -0.754475
  H      -0.825218      0.905036      1.098097
  H      -1.463235      2.052616      3.347956
  H       0.280300      0.045623      3.293881
  H       1.113816      0.893814     -0.804061
  Al      0.288995     -1.486505      2.565462
  H       1.499872     -2.258506      3.244401
  H      -1.215725     -1.958371      2.397616
  H       1.168948      2.280809      2.242419
12
Coordinates from ORCA-job run E -732.259408945232
  Al     -0.183455      1.529968      2.574358
  Al      0.031974     -0.021139     -0.084829
  H       0.917142     -0.972751      1.045978
  H      -1.086184     -0.926942     -0.753591
  H      -0.820485      0.903072      1.098318
  H      -1.463040      2.054503      3.352694
  H       0.265262      0.052985      3.302840
  H       1.114645      0.887565     -0.804481
  Al      0.295158     -1.491308      2.564851
  H       1.502781     -2.271280      3.237143
  H      -1.212784     -1.956678      2.391940
  H       1.165954      2.298405      2.245079
12
Coordinates from ORCA-job run E -732.259439105954
  Al     -0.184389      1.535108      2.572580
  Al      0.029666     -0.021963     -0.084165
  H       0.916211     -0.976980      1.044772
  H      -1.089136     -0.925736     -0.754380
  H      -0.819417      0.903642      1.097580
  H      -1.463272      2.060870      3.352038
  H       0.262188      0.055485      3.308839
  H       1.114355      0.885083     -0.803193
  Al      0.296996     -1.494011      2.564712
  H       1.505722     -2.271576      3.236666
  H      -1.209580     -1.963358      2.386154
  H       1.167625      2.299837      2.248696
12
Coordinates from ORCA-job run E -732.259451667300
  Al     -0.185491      1.537263      2.571286
  Al      0.027464     -0.022319     -0.083842
  H       0.914584     -0.979023      1.043367
  H      -1.091637     -0.924398     -0.755704
  H      -0.818870      0.904350      1.097078
  H      -1.463442      2.065695      3.350431
  H       0.261582      0.055457      3.312236
  H       1.113936      0.883793     -0.801545
  Al      0.297752     -1.494962      2.564699
  H       1.508060     -2.268552      3.238257
  H      -1.206919     -1.968767      2.382094
  H       1.169951      2.297863      2.251942
12
Coordinates from ORCA-job run E -732.259461339051
  Al     -0.186295      1.538306      2.570212
  Al      0.025266     -0.022920     -0.083739
  H       0.912813     -0.980993      1.041193
  H      -1.094273     -0.922926     -0.757526
  H      -0.817855      0.904713      1.097010
  H      -1.463457      2.068713      3.348865
  H       0.260477      0.054119      3.314144
  H       1.113572      0.882595     -0.799577
  Al      0.298592     -1.494704      2.564725
  H       1.510235     -2.264368      3.240702
  H      -1.204391     -1.971894      2.379065
  H       1.172285      2.295758      2.255226
12
Coordinates from ORCA-job run E -732.259469640042
  Al     -0.186600      1.538606      2.569433
  Al      0.023117     -0.024047     -0.083901
  H       0.911056     -0.983533      1.038145
  H      -1.097219     -0.921250     -0.759946
  H      -0.816116      0.904564      1.097479
  H      -1.463302      2.069763      3.347663
  H       0.258104      0.052081      3.314673
  H       1.113324      0.881246     -0.797300
  Al      0.299814     -1.493303      2.564801
  H       1.512348     -2.259534      3.243667
  H      -1.201961     -1.972487      2.376952
  H       1.174405      2.294294      2.258636
12
Coordinates from ORCA-job run E -732.259473928099
  Al     -0.186295      1.538276      2.569396
  Al      0.022064     -0.025207     -0.084280
  H       0.910157     -0.985645      1.035909
  H      -1.099141     -0.920064     -0.761870
  H      -0.814614      0.904051      1.098178
  H      -1.463130      2.068920      3.347393
  H       0.255749      0.051036      3.313913
  H       1.113309      0.880382     -0.795830
  Al      0.300826     -1.491749      2.564917
  H       1.513492     -2.256565      3.245508
  H      -1.200745     -1.971114      2.376467
  H       1.175297      2.294080      2.260599
12
Coordinates from ORCA-job run E -732.259476318235
  Al     -0.185830      1.537857      2.569785
  Al      0.021630     -0.026222     -0.084751
  H       0.909674     -0.987406      1.034550
  H      -1.100430     -0.919079     -0.763447
  H      -0.813595      0.903560      1.098784
  H      -1.463070      2.067995      3.347443
  H       0.254050      0.051140      3.312973
  H       1.113407      0.879901     -0.794892
  Al      0.301533     -1.490632      2.565071
  H       1.514170     -2.254815      3.246492
  H      -1.200159     -1.970031      2.376566
  H       1.175589      2.294132      2.261726
12
Coordinates from ORCA-job run E -732.259477903958
  Al     -0.185461      1.537599      2.570335
  Al      0.021340     -0.027088     -0.085270
  H       0.909161     -0.989083      1.033699
  H      -1.101577     -0.917962     -0.765032
  H      -0.812957      0.903257      1.099193
  H      -1.463169      2.067865      3.347345
  H       0.253030      0.051966      3.312369
  H       1.113566      0.879607     -0.794065
  Al      0.302023     -1.490037      2.565263
  H       1.514855     -2.253388      3.247118
  H      -1.199658     -1.970214      2.376698
  H       1.175817      2.293877      2.262648
12
Coordinates from ORCA-job run E -732.259478787306
  Al     -0.185333      1.537617      2.570796
  Al      0.021063     -0.027607     -0.085703
  H       0.908529     -0.990435      1.033262
  H      -1.102518     -0.916817     -0.766446
  H      -0.812706      0.903223      1.099315
  H      -1.463410      2.068646      3.346948
  H       0.252752      0.052861      3.312299
  H       1.113786      0.879451     -0.793314
  Al      0.302265     -1.490025      2.565445
  H       1.515588     -2.252226      3.247477
  H      -1.199155     -1.971632      2.376843
  H       1.176110      2.293344      2.263378
12
Coordinates from ORCA-job run E -732.259479220844
  Al     -0.185374      1.537807      2.571056
  Al      0.020840     -0.027750     -0.085975
  H       0.907897     -0.991303      1.033062
  H      -1.103105     -0.915878     -0.767471
  H      -0.812676      0.903342      1.099245
  H      -1.463689      2.069645      3.346431
  H       0.252878      0.053287      3.312491
  H       1.114080      0.879374     -0.792715
  Al      0.302324     -1.490340      2.565568
  H       1.516221     -2.251491      3.247590
  H      -1.198775     -1.973250      2.377229
  H       1.176349      2.292957      2.263787
12
Coordinates from ORCA-job run E -732.259479566844
  Al     -0.185444      1.538077      2.571264
  Al      0.020644     -0.027724     -0.086220
  H       0.907127     -0.992135      1.032834
  H      -1.103581     -0.914860     -0.768511
  H      -0.812653      0.903493      1.099122
  H      -1.464024      2.070589      3.345826
  H       0.253034      0.053364      3.312650
  H       1.114569      0.879275     -0.792049
  Al      0.302343     -1.490783      2.565676
  H       1.516917     -2.250905      3.247546
  H      -1.198466     -1.974843      2.378133
  H       1.176504      2.292851      2.264031
12
Coordinates from ORCA-job run E -732.259479962216
  Al     -0.185492      1.538427      2.571503
  Al      0.020467     -0.027563     -0.086521
  H       0.905996     -0.993232      1.032442
  H      -1.104063     -0.913476     -0.769879
  H      -0.812548      0.903653      1.098978
  H      -1.464482      2.071430      3.345067
  H       0.253108      0.053146      3.312611
  H       1.115456      0.879088     -0.791117
  Al      0.302357     -1.491359      2.565803
  H       1.517856     -2.250319      3.247295
  H      -1.198218     -1.976533      2.379968
  H       1.176533      2.293139      2.264151
12
Coordinates from ORCA-job run E -732.259480373044
  Al     -0.185479      1.538782      2.571734
  Al      0.020357     -0.027284     -0.086846
  H       0.904544     -0.994556      1.031864
  H      -1.104488     -0.911833     -0.771460
  H      -0.812310      0.903773      1.098870
  H      -1.464998      2.071841      3.344310
  H       0.252987      0.052706      3.312204
  H       1.116760      0.878771     -0.789976
  Al      0.302377     -1.491938      2.565939
  H       1.518971     -2.249767      3.246803
  H      -1.198121     -1.977979      2.382725
  H       1.176370      2.293884      2.264133
12
Coordinates from ORCA-job run E -732.259480679534
  Al     -0.185427      1.539011      2.571830
  Al      0.020349     -0.026981     -0.087066
  H       0.903205     -0.995685      1.031292
  H      -1.104723     -0.910483     -0.772691
  H      -0.812016      0.903828      1.098834
  H      -1.465373      2.071640      3.343866
  H       0.252719      0.052343      3.311527
  H       1.118068      0.878383     -0.789015
  Al      0.302382     -1.492294      2.566048
  H       1.519914     -2.249350      3.246233
  H      -1.198213     -1.978757      2.385386
  H       1.176084      2.294745      2.264056
12
Coordinates from ORCA-job run E -732.259480910372
  Al     -0.185399      1.539128      2.571761
  Al      0.020398     -0.026689     -0.087168
  H       0.902056     -0.996549      1.030824
  H      -1.104821     -0.909492     -0.773498
  H      -0.811753      0.903880      1.098816
  H      -1.465589      2.071111      3.343718
  H       0.252466      0.052230      3.310782
  H       1.119212      0.877970     -0.788312
  Al      0.302351     -1.492459      2.566145
  H       1.520648     -2.248968      3.245708
  H      -1.198399     -1.979175      2.387485
  H       1.175800      2.295413      2.264037
12
Coordinates from ORCA-job run E -732.259481128364
  Al     -0.185439      1.539215      2.571532
  Al      0.020464     -0.026361     -0.087218
  H       0.900786     -0.997421      1.030385
  H      -1.104910     -0.908512     -0.774182
  H      -0.811521      0.904006      1.098744
  H      -1.465746      2.070461      3.343717
  H       0.252301      0.052371      3.309971
  H       1.120407      0.877472     -0.787669
  Al      0.302267     -1.492573      2.566285
  H       1.521408     -2.248414      3.245197
  H      -1.198602     -1.979723      2.389384
  H       1.175556      2.295879      2.264154
12
Coordinates from ORCA-job run E -732.259481305926
  Al     -0.185564      1.539302      2.571204
  Al      0.020522     -0.026062     -0.087249
  H       0.899566     -0.998250      1.030055
  H      -1.105049     -0.907586     -0.774739
  H      -0.811390      0.904234      1.098569
  H      -1.465864      2.069980      3.343784
  H       0.252317      0.052714      3.309328
  H       1.121448      0.877000     -0.787166
  Al      0.302150     -1.492700      2.566480
  H       1.522118     -2.247741      3.244834
  H      -1.198714     -1.980535      2.390786
  H       1.175430      2.296045      2.264415
12
Coordinates from ORCA-job run E -732.259481419401
  Al     -0.185720      1.539385      2.570911
  Al      0.020572     -0.025883     -0.087303
  H       0.898681     -0.998918      1.029883
  H      -1.105235     -0.906842     -0.775142
  H      -0.811378      0.904509      1.098319
  H      -1.465953      2.069801      3.343851
  H       0.252482      0.053048      3.309013
  H       1.122108      0.876690     -0.786890
  Al      0.302051     -1.492845      2.566700
  H       1.522630     -2.247160      3.244714
  H      -1.198691     -1.981389      2.391532
  H       1.175423      2.296005      2.264710
