76
Coordinates from ORCA-job run E -3976.499678637467
  Zr          0.00637816434704      2.24828307781435      1.42143973285486
  Zr         -0.17592673222579     -1.99052287327929     -1.43144619398996
  Zr          1.54747004963487     -1.16808197624401      1.47069552367578
  Zr         -1.75212530890226      1.41018267740822     -1.46890488887650
  Zr          1.69420754749249      0.93715261927162     -1.65323286305533
  Zr         -1.89031101240135     -0.66422622999290      1.64957045447189
  O          -1.71547169865385      1.10198193322190      0.58511938267724
  O           1.53587951567479     -0.84236024467919     -0.57929456444515
  O          -0.44119262567457     -1.77076669231292      0.62008214376345
  O           0.23537642676430      2.00762702469969     -0.62755285365213
  O          -0.30357058713587      0.00814927743386     -1.99281653792788
  O           0.11639845035216      0.23727039957385      1.99060376975409
  O          -1.29753985035926      2.50026348394419      3.20783326067618
  O          -1.23626719022768      4.03295561700713      0.93510340748673
  O           1.65120417800479      2.14936101975483      2.94923766752752
  O           1.66429107857154      3.67591565137072      0.84351691206019
  O          -1.91394746553644     -3.35382950481285     -0.92505004877585
  O          -1.73121395888865     -1.91851854170892     -3.07165578623306
  O           1.02634398639129     -3.80736114143312     -0.91845236090452
  O           1.19095490454377     -2.26689850187584     -3.16584133729281
  O           0.84346398287654     -2.37125600560435      3.22110536713675
  O           2.48812820690916      0.04031553374238      3.14077401460156
  O           2.18409455272179     -3.24194002810282      0.94908936677466
  O           3.68100985085246     -0.66634405777243      0.94802801391277
  O          -3.88586347767532      0.97911335070419     -0.89154829189760
  O          -2.34614203353334      3.50357012066599     -0.97258313268307
  O          -2.71341448752900      0.13633262156163     -3.05806593781412
  O          -1.06982334755386      2.58427036365180     -3.23532118630716
  O           1.15822690063043      2.19900633345934     -3.40775339305075
  O           2.73158568195740      2.80512923596968     -0.96842886763678
  O           2.29700502543233     -0.30262964571983     -3.40964649288549
  O           3.80611018733995      0.42545740020995     -1.04517038099817
  O          -4.01493147134231     -0.04199952932962      1.14229030629878
  O          -2.41851632032582      0.54381561881895      3.45164233597999
  O          -3.01298129274992     -2.41825762716149      0.82998577085184
  O          -1.38787575297824     -1.99544723436334      3.36662867561229
  C          -2.08470733984480      1.71208152910979      3.81457990738360
  C          -2.03791980245193      4.28008532187580     -0.01738854358392
  C           2.30143049724921      1.22748918648103      3.53954021480710
  C           2.46333419656140      3.73093999059427     -0.13773293806668
  C          -2.76792409376741     -3.35604298439693      0.00780944606987
  C          -2.45990941913764     -1.00149413950745     -3.56117679411114
  C           1.85245542407919     -4.03705204457077      0.01885239617141
  C           1.99842023064071     -1.48468410325142     -3.75508670743326
  C          -0.29580297358015     -2.51763966814251      3.75363474393719
  C           4.28884477122716     -0.25190543859582     -0.08875647736371
  C          -4.48847226871161      0.61738793120914      0.16995648121433
  C           0.06307469596420      2.71189493990206     -3.79162340218284
  H          -2.95257694632861     -1.22997233187707     -4.55219368477893
  H           2.34163333252590     -5.05263134435130      0.02519113604326
  H           2.78061661724098      1.50787521708623      4.52340654741126
  H          -2.52754219064195      5.29585487868101     -0.01407480886336
  H           2.50138985549538     -1.88487238171591     -4.68167424139153
  H           0.10086125309349      3.34656542510942     -4.72285819979295
  H           3.01900822184601      4.70140054385618     -0.27912692298851
  H           5.38868560798474     -0.50061543813904     -0.15593258780449
  H          -3.40385425987428     -4.28541302808593      0.10947663742105
  H          -5.57778885853304      0.90783196049887      0.24602415946262
  H          -2.53979364804388      2.09155777119792      4.77381184880245
  H          -0.34645159526194     -3.17964888507534      4.66563048413565
  Al         -3.40407250727975     -5.64877109942587      3.35903322487196
  Al         -0.60816010600182     -6.41549064536061      2.28875107848510
  H          -0.72968607169024     -6.14063248838747      0.57385832319502
  H           0.78541961236167     -5.77397325476988      2.76846685265492
  H          -1.84530774401370     -5.23391608772098      2.66529095532153
  H          -4.25772196569395     -4.28591893054315      3.27811511089115
  H          -3.89793743389847     -6.62465485940490      2.02210289768479
  H          -1.21134745694817     -7.88801099695563      2.57939026261335
  Al         -1.20516736755654     -7.23648011712019     -0.70373703800668
  H          -2.83691259331511     -7.41908870469590     -0.14318908258791
  H          -1.27608616459991     -6.35199834585912     -2.04557270836828
  H          -3.15812392053967     -6.59220005493118      4.64259303608252
  Al         -4.37602250969203     -7.55486079088595      0.63942824261029
  H          -5.37220376105897     -6.60246095816702     -0.20041276457555
  H          -4.57889097209105     -9.07956027490846      1.11483572855684
  H          -0.44015847846585     -8.63889689106365     -0.47131345817499
