8
Coordinates from ORCA-job run E -488.117008001382
  Al     -0.000000      0.000000      0.000000
  H       0.519920      1.185960     -0.939980
  H      -0.526680     -1.201460     -0.916720
  H       1.248520     -0.537540      1.033900
  Al     -0.000000     -0.000000      2.068080
  H       0.520010      1.185850      3.008170
  H      -0.526870     -1.202180      2.984310
  H      -1.241300      0.554040      1.033920
8
Coordinates from ORCA-job run E -488.126142715066
  Al     -0.000087     -0.000208     -0.013131
  H       0.525077      1.197732     -0.930144
  H      -0.531900     -1.213348     -0.906346
  H       1.230145     -0.529114      1.033919
  Al     -0.000087     -0.000222      2.081202
  H       0.525144      1.197580      2.998354
  H      -0.532051     -1.213970      2.973883
  H      -1.222640      0.546220      1.033944
8
Coordinates from ORCA-job run E -488.148913987961
  Al     -0.000231     -0.000545     -0.057255
  H       0.536384      1.223526     -0.921579
  H      -0.542987     -1.238615     -0.897460
  H       1.188043     -0.510910      1.033954
  Al     -0.000238     -0.000590      2.125298
  H       0.536407      1.223286      2.989831
  H      -0.543060     -1.239051      2.964905
  H      -1.180718      0.527570      1.033985
8
Coordinates from ORCA-job run E -488.166295648873
  Al     -0.000341     -0.000799     -0.107459
  H       0.545643      1.244651     -0.926670
  H      -0.551980     -1.259121     -0.902648
  H       1.150680     -0.494973      1.033972
  Al     -0.000357     -0.000874      2.175472
  H       0.545638      1.244351      2.994952
  H      -0.552008     -1.259448      2.970055
  H      -1.143676      0.510883      1.034006
8
Coordinates from ORCA-job run E -488.177777162409
  Al     -0.000432     -0.001009     -0.160302
  H       0.553874      1.263430     -0.938880
  H      -0.559948     -1.277288     -0.915206
  H       1.115836     -0.480160      1.033976
  Al     -0.000456     -0.001113      2.228282
  H       0.553851      1.263094      3.007175
  H      -0.559958     -1.277572      2.982622
  H      -1.109168      0.495289      1.034013
8
Coordinates from ORCA-job run E -488.184021538497
  Al     -0.000509     -0.001188     -0.214040
  H       0.561769      1.281446     -0.953281
  H      -0.567561     -1.294641     -0.930227
  H       1.082063     -0.465890      1.033970
  Al     -0.000540     -0.001325      2.281984
  H       0.561734      1.281088      3.021575
  H      -0.567575     -1.294928      2.997689
  H      -1.075782      0.480108      1.034010
8
Coordinates from ORCA-job run E -488.185824192888
  Al     -0.000551     -0.001288     -0.255304
  H       0.567733      1.295061     -0.964721
  H      -0.573243     -1.307589     -0.942512
  H       1.058083     -0.456008      1.033957
  Al     -0.000585     -0.001454      2.323222
  H       0.567689      1.294693      3.033002
  H      -0.573273     -1.307905      3.010033
  H      -1.052253      0.469161      1.034003
8
Coordinates from ORCA-job run E -488.185961961070
  Al     -0.000551     -0.001290     -0.267203
  H       0.569461      1.299006     -0.968777
  H      -0.574811     -1.311159     -0.947190
  H       1.054455     -0.454839      1.033949
  Al     -0.000586     -0.001469      2.335115
  H       0.569413      1.298637      3.037047
  H      -0.574852     -1.311498      3.014743
  H      -1.048929      0.467284      1.033997
8
Coordinates from ORCA-job run E -488.185996984758
  Al     -0.000543     -0.001272     -0.270924
  H       0.570014      1.300272     -0.970663
  H      -0.575226     -1.312103     -0.949702
  H       1.056442     -0.456102      1.033943
  Al     -0.000577     -0.001460      2.338836
  H       0.569964      1.299903      3.038922
  H      -0.575276     -1.312457      3.017275
  H      -1.051199      0.467888      1.033993
8
Coordinates from ORCA-job run E -488.186023693037
  Al     -0.000530     -0.001240     -0.272769
  H       0.570305      1.300937     -0.972250
  H      -0.575287     -1.312241     -0.952388
  H       1.061764     -0.459082      1.033935
  Al     -0.000563     -0.001442      2.340684
  H       0.570250      1.300567      3.040494
  H      -0.575347     -1.312612      3.019987
  H      -1.056991      0.469783      1.033988
8
Coordinates from ORCA-job run E -488.186028906120
  Al     -0.000527     -0.001232     -0.271900
  H       0.570194      1.300684     -0.972091
  H      -0.575037     -1.311669     -0.952955
  H       1.064741     -0.460769      1.033932
  Al     -0.000560     -0.001441      2.339817
  H       0.570136      1.300312      3.040328
  H      -0.575099     -1.312043      3.020562
  H      -1.060247      0.470828      1.033986
8
Coordinates from ORCA-job run E -488.186029533765
  Al     -0.000531     -0.001239     -0.271174
  H       0.570112      1.300496     -0.971503
  H      -0.574865     -1.311276     -0.952867
  H       1.065430     -0.461304      1.033932
  Al     -0.000565     -0.001453      2.339093
  H       0.570053      1.300122      3.039736
  H      -0.574926     -1.311649      3.020476
  H      -1.061108      0.470973      1.033987
8
Coordinates from ORCA-job run E -488.186029660135
  Al     -0.000537     -0.001250     -0.270955
  H       0.570119      1.300512     -0.970992
  H      -0.574785     -1.311095     -0.952846
  H       1.065440     -0.461528      1.033933
  Al     -0.000571     -0.001468      2.338874
  H       0.570059      1.300137      3.039222
  H      -0.574846     -1.311467      3.020457
  H      -1.061279      0.470829      1.033987
