72
Coordinates from ORCA-job run E -3732.512468851736
  Zr          0.05556179233971      2.09593002379122      1.48865770209605
  Zr          0.14280347208653     -2.04990034879599     -1.52754695557811
  Zr          1.82427773057664     -1.20573698480912      1.40231536909315
  Zr         -1.63767519477867      1.25625933639821     -1.42891953659898
  Zr          1.82390432601487      0.98933687722749     -1.63871329456406
  Zr         -1.63121503403779     -0.94301647863982      1.60681539162093
  O          -1.60011514944682      0.89063199270787      0.62489427189783
  O           1.79869790085186     -0.84762924185775     -0.65614564424870
  O          -0.11511325766763     -1.87930094112649      0.52811097076844
  O           0.30632051574856      1.92593509902751     -0.56034347643193
  O          -0.11399028195357     -0.03490447347097     -2.01493431438506
  O           0.30643582590754      0.07993841460173      1.98812069942383
  O          -1.20821553993320      2.17058227597760      3.33137024449629
  O          -1.33330598273758      3.80151312681360      1.09869586283527
  O           1.76839006136254      2.05589484376356      2.93152475325359
  O           1.55448273676451      3.70505772269227      0.92551822034038
  O          -1.40382209924707     -3.60277034020325     -0.99107287290058
  O          -1.49988509998067     -2.02472148558082     -3.06476623462890
  O           1.51245759013778     -3.76026704088909     -1.11301193851874
  O           1.44751451691333     -2.14382901112447     -3.33562243819675
  O           1.22416372595937     -2.50839649116080      3.10830523460660
  O           2.70624066972317     -0.00926049508259      3.12057002287070
  O           2.55454871032670     -3.23431422466584      0.83487577818173
  O           3.91907583588810     -0.56796413644932      0.89216722100881
  O          -3.75994196340221      0.70428576008648     -0.88859756435363
  O          -2.31883184617340      3.30163703197861     -0.88285245337738
  O          -2.54306260927642     -0.00211461962592     -3.06950392087069
  O          -1.03902198410805      2.52015572366890     -3.16221124510756
  O           1.21843310128187      2.32441700801661     -3.32440498418534
  O           2.74511289893854      2.88209981863408     -0.83549958680159
  O           2.47014493736185     -0.12062868213337     -3.45497043037146
  O           3.97793482295582      0.60204282061188     -1.05940874543999
  O          -3.77405187040086     -0.57608989137196      0.99313342962953
  O          -2.27036464272719      0.16692935367130      3.43613057606195
  O          -2.54682081932899     -2.85815167747790      0.83346469290356
  O          -1.02785852802294     -2.27451307150681      3.29410630542279
  C          -1.98267475679547      1.32450808315623      3.87006357933919
  C          -2.10229487450049      4.04721103208530      0.12039360814109
  C           2.45087892452113      1.16076043495140      3.52800578877395
  C           2.38090614722010      3.79751766534344     -0.02920946843224
  C          -2.20182187145773     -3.73864938018222     -0.01456116511603
  C          -2.24366925317471     -1.12741770484235     -3.57041624310304
  C           2.32427755825381     -3.98220902561205     -0.16377775404888
  C           2.21393948076716     -1.28980674363772     -3.87639840249840
  C           0.09837237877365     -2.74154209010223      3.64468334937714
  C           4.49890113669896     -0.08600858310304     -0.13312907553821
  C          -4.31512572215158      0.16578608097586      0.11776984769687
  C           0.08753175808508      2.76748343923828     -3.69069755896197
  H          -2.70726142844161     -1.36982099935877     -4.57128008640886
  H           2.90281422408949     -4.94960049410816     -0.21173052225815
  H           2.89322612682057      1.45506565542345      4.52452144770094
  H          -2.64923612328395      5.03317052973501      0.14027515882899
  H           2.72233397164667     -1.60215455082060     -4.83369321573857
  H           0.08227201463671      3.45651717298152     -4.58410260232594
  H           2.86832376790484      4.80648067762144     -0.17272824616767
  H           5.60869651098167     -0.27848330965565     -0.21314838070752
  H          -2.67679847112313     -4.75681148150892      0.10221768268521
  H          -5.42424070381452      0.34885954254580      0.23147187126788
  H          -2.46648544252263      1.63118753559159      4.84319014145508
  H           0.09975113724318     -3.44058816545925      4.53026283926540
  Al         -6.22627772510316      4.78058009928287      1.09533997289594
  Al         -4.56930480442542      5.38675662933652      3.82439602884036
  H          -5.18893368928337      3.79914814831660      4.24809904189479
  H          -2.96776748977344      5.34682342631447      3.95289903247699
  H          -4.89783962067870      5.28212123858475      2.11138451744218
  H          -5.53207979732320      4.18551033082373     -0.22925881235424
  H          -6.73724876274798      3.44860297688085      2.11860129805858
  H          -5.62757988791670      6.41986210296627      4.46444240771191
  Al         -5.57972017904819      2.55361026925840      3.08399639747411
  H          -6.44709340193537      1.46420720129430      3.89071721264238
  H          -4.27725595623198      2.36049002377803      2.16492151195353
  H          -7.40613271969838      5.87053336152192      1.21807878183894
