64
Coordinates from ORCA-job run E -3244.552627725118
  Zr         -0.31937451378895      2.23543322299556      1.41147482549369
  Zr          0.22683412660722     -2.00618236619389     -1.44973408821009
  Zr          1.70613730789290     -0.90351759706908      1.49777600167892
  Zr         -1.88668197575410      1.12476057354288     -1.52258902469762
  Zr          1.56203760147672      1.16564954189464     -1.65716193474829
  Zr         -1.75931224230129     -0.97174734729070      1.55634280518483
  O          -1.83775266753520      0.83103585874425      0.53287481473869
  O           1.73873413006969     -0.60907988914809     -0.57657495431664
  O          -0.11894875081221     -1.77405293652192      0.59074634208147
  O          -0.05279055286337      2.05748411345169     -0.67525395480411
  O          -0.22325749199275     -0.05729878556818     -2.00367062235399
  O           0.11373551770499      0.29915977440643      1.99920532154937
  O          -1.81266466456145      2.17013501722310      3.08962433329433
  O          -1.73943503236689      3.82239512203569      0.75510188729740
  O           1.43512810401841      2.17230117315131      3.40356338904471
  O           1.64635525380985      3.21366540843766      0.96089426421333
  O          -1.34507307697718     -3.50946141909638     -0.96915391206826
  O          -1.20141029895902     -2.18812937953274     -3.22132041413653
  O           1.67186991151263     -3.59245753270069     -0.85561567159110
  O           1.66551996569229     -2.08612920878555     -3.15437428353562
  O           1.15671294911963     -2.33114597095153      3.12494583056079
  O           2.38071072640294      0.11569395231836      3.47020189931275
  O           2.75663214783114     -2.80798511719803      0.97412305880210
  O           3.60764982475413      0.16205612128443      1.14409490275249
  O          -4.03860873365176      0.64519470750868     -0.97235797346078
  O          -2.74706349076279      3.14138070740690     -1.15917826305696
  O          -2.65451824615684     -0.46668616006420     -2.88867961121709
  O          -1.39546253867844      2.24326162934899     -3.37642623207438
  O           0.87007339158658      2.24288125097326     -3.48816900696138
  O           2.29959354393138      3.27379662072767     -1.20441844632074
  O           2.45732639237474      0.03107061503244     -3.34621215574808
  O           3.72504784808951      1.11870331461982     -0.91232592943904
  O          -3.79762026359223     -0.92169912641534      0.66075039676274
  O          -2.67255954109538      0.08191951527186      3.26992685752563
  O          -2.39904362626705     -3.08506311880444      1.00393690685198
  O          -1.08953661349279     -2.11498489440982      3.34299134119198
  C          -2.54507628618886      1.29455325254583      3.63160717377900
  C          -2.51899575457379      3.97740676513844     -0.23418143208593
  C           2.12420416678024      1.23458243141572      3.96521015339794
  C           2.18621988496897      3.77653031460254     -0.05410714890301
  C          -2.03939205348546     -3.83286940078380      0.05082919809939
  C          -2.15928494596650     -1.43590936472871     -3.55624499127663
  C           2.54991279784456     -3.66090020666103      0.05861147741405
  C           2.38072869391376     -1.18731716128780     -3.69219724373506
  C           0.04205057129373     -2.58169874891416      3.67462806111320
  C           4.23171396071921      0.59547634778452      0.11719392811382
  C          -4.47448894389347     -0.12484546744665     -0.07109903533840
  C          -0.28410902076923      2.53490698466561     -3.91982996466879
  H          -2.64720231964165     -1.65189555423107     -4.55152482643128
  H           3.21219900719067     -4.57386639195623      0.05623374651640
  H           2.52703657566989      1.46608865026281      4.99402214513290
  H          -3.06568758910804      4.96198790304225     -0.29406163068674
  H           3.01433029115227     -1.50327959040810     -4.57011912299494
  H          -0.33297982581434      3.11239816085181     -4.88735330232053
  H           2.60966760672017      4.80942698769667      0.10793600210108
  H           5.35720760635695      0.51737094229784      0.15141812446541
  H          -2.38462643879996     -4.90701616169189      0.09343786291511
  H          -5.59065322530066     -0.12342109605525      0.09909580311112
  H          -3.15122319941434      1.61757836438378      4.52630951098739
  H           0.05912542944742     -3.29194972855844      4.55070441444089
  Al          1.10104145249831      4.02407840976260      3.85302775312034
  H           0.64018895409986      4.00204701142056      5.41582468513150
  H           2.39542734631805      4.91229596133473      3.42345420562386
  H          -0.12871998998571      4.04756781017728      2.71226859600761
