4
Coordinates from ORCA-job run E -244.051736789973
  Al     -1.365121      0.622418     -0.208465
  H      -0.536686      0.414286      1.143598
  H      -1.297477      2.021416     -0.980432
  H      -2.261166     -0.568471     -0.788631
4
Coordinates from ORCA-job run E -244.051742090113
  Al     -1.365107      0.622412     -0.208476
  H      -0.537333      0.414450      1.142554
  H      -1.297533      2.020337     -0.979830
  H      -2.260478     -0.567549     -0.788178
4
Coordinates from ORCA-job run E -244.051746193447
  Al     -1.365113      0.622414     -0.208477
  H      -0.538587      0.414766      1.140503
  H      -1.297630      2.018221     -0.978659
  H      -2.259119     -0.565751     -0.787298
4
Coordinates from ORCA-job run E -244.051746193649
  Al     -1.365110      0.622413     -0.208480
  H      -0.538579      0.414764      1.140518
  H      -1.297630      2.018238     -0.978666
  H      -2.259130     -0.565764     -0.787303
