4
Coordinates from ORCA-job run E -244.044850575146
  Al         -1.36512122189131      0.62241795840981     -0.20846459140385
  H          -0.53668629762638      0.41428649317000      1.14359793412824
  H          -1.29747665637614      2.02141635565038     -0.98043222245157
  H          -2.26116582410617     -0.56847080723019     -0.78863112027282
