72
Coordinates from ORCA-job run E -3736.449850817499
  Zr         -0.33867083938522      1.87031230233931      1.84710226902609
  Zr          0.44363859655222     -1.78914323638202     -1.47362309271446
  Zr          1.44951581074333     -1.33991959341877      1.78935738602675
  Zr         -1.40823937486126      1.50404175688507     -1.38838688905021
  Zr          1.90986121054841      1.19491333261375     -0.77741916608270
  Zr         -1.93822696389143     -1.09579347925376      1.24819785704080
  O          -1.71035372177546      0.81712825711446      0.51694110495787
  O           1.89339197901264     -0.72145947572105     -0.10486570724813
  O          -0.22566225884146     -1.90988204611017      0.45230060534358
  O           0.25538203799860      2.22764600246636     -0.14162763636227
  O           0.21987809143860      0.24602942587038     -1.68389580382968
  O          -0.17806636113170     -0.15032708649148      2.17829886173632
  O          -2.00294479347810      1.79351585242001      3.28666679260082
  O          -1.61757142772539      3.63115545838698      1.41224676665596
  O           0.76445235785111      1.65226184884628      3.82470141972027
  O           1.15869484079116      3.63402497335506      2.11353722044110
  O          -1.19780358319215     -3.27940617498885     -1.55875192362998
  O          -0.66440255262372     -1.53461203967898     -3.39111486320345
  O           1.64592739842670     -3.56425930341899     -0.99194484441145
  O           2.14675877634555     -1.66800152007738     -2.86027261488351
  O           0.51821699210971     -2.75156199745352      3.19922016947356
  O           1.99757823275511     -0.24872046489485      3.62406263557903
  O           2.20737702342973     -3.33340990515767      1.18530213950717
  O           3.73156347142593     -1.09722979479808      1.85102737254611
  O          -3.57426945344462      0.97490285054897     -1.34551343925959
  O          -2.26356076870909      3.42293858103829     -0.74670430212431
  O          -1.88525647075968      0.37382401469851     -3.24197164289460
  O          -0.49933426557072      2.87413286682654     -2.83572326301094
  O           1.72084532355753      2.64333219546788     -2.47230872633604
  O           2.24131914128781      1.83660826933058      1.37910874843878
  O           3.11852047140516      0.32742251576888     -2.44173318391560
  O           4.33349853235546      0.39484523137592      0.27493608728987
  O          -3.85592012029260     -0.65155384591851      0.21267835817350
  O          -3.02070094362995     -0.19254673473391      2.93752420538689
  O          -2.62596766773136     -2.92671880618774      0.16751369324664
  O          -1.71036022897145     -2.56483362874878      2.87844802655765
  C          -2.87317314362087      0.91241859516051      3.53733296682285
  C          -2.18977159909561      4.03505208318944      0.36109242691341
  C           1.49200615198361      0.72323381882947      4.27047877947759
  C           2.21593147707555      3.07883181450079      1.75824815265626
  C          -2.12596526374942     -3.61837547004404     -0.76447924559874
  C          -1.38384318893135     -0.60887555732740     -3.86527009040769
  C           2.17906177925251     -3.95750709702764      0.08748061620597
  C           3.03432461123138     -0.78300758948036     -3.03894242300498
  C          -0.68790202566201     -3.03793856493103      3.45260488350042
  C           4.58325113015646     -0.44156774756934      1.21658500000067
  C          -4.27002628780835      0.23606842864907     -0.59108507843054
  C           0.71932123752086      3.15791971139403     -3.04280513713356
  H          -1.61735404567719     -0.67459278456453     -4.94590461708072
  H           2.67049708588232     -4.94852904254652      0.06448582068330
  H           1.73907605798240      0.76476513736404      5.34964212466529
  H          -2.68355151034455      5.02388435958455      0.41221273594683
  H           3.80992598432281     -1.00348707512681     -3.79634892777621
  H           0.92258651273535      3.93302211447754     -3.80598354804506
  H           3.17013105327183      3.63536507635040      1.75858395718746
  H           5.64819076833336     -0.58644444135503      1.48442324047784
  H          -2.55795960404916     -4.62639854044819     -0.91781146900159
  H          -5.36816552481160      0.36678078803298     -0.65175858557746
  H          -3.57767331488051      1.12889823520215      4.36214985348032
  H          -0.86485193965310     -3.77683994544587      4.25670398338625
  Al          5.18768745812952      5.12228946626653     -0.70693211970482
  Al          5.15484920838553      1.88326657599355     -0.56015346139800
  H           5.62898038261179      2.40787943063461      1.00680258727569
  H           3.63164754688510      2.43528815820093     -0.86685189026599
  H           5.66907149265897      3.58946327297135     -1.14903032931237
  H           3.60212459971268      5.24146269960039     -0.55845301647425
  H           5.71227612891000      5.00954699513659      0.94764257053423
  H           6.25949402296755      1.26049147865582     -1.51102994523379
  Al          6.64598406131100      3.68778586046086      1.47478136990887
  H           7.99894748878302      3.59020419553599      0.64381443843019
  H           6.51552525522372      3.70550309715737      3.06406003458122
  H           6.11595070280684      6.22462202890748     -1.38831246360137
