68
Coordinates from ORCA-job run E -3488.523495290295
  Zr         -0.20644756841391      2.15319660678476      1.48629027672142
  Zr          0.27913611634719     -1.99139405036001     -1.47073735190979
  Zr          1.81026324947604     -0.98963393606964      1.49890216121701
  Zr         -1.73065431504084      1.15574092441255     -1.47655865965773
  Zr          1.74517212619090      1.16343959070801     -1.54846926328523
  Zr         -1.66686731113682     -1.00441730732023      1.56724560638942
  O          -1.74495999646590      0.80416113660127      0.57693863637534
  O           1.82298412037159     -0.64293652544221     -0.55397786350889
  O          -0.04419056736422     -1.83127082855399      0.56116757356035
  O           0.12346525695204      1.99033140811916     -0.54234653738638
  O          -0.10887967054316     -0.01416086977874     -1.98520517423245
  O           0.18573023411031      0.17384207562096      2.00705150657634
  O          -1.52963857542994      2.15125323895143      3.27356480558061
  O          -1.73211029059108      3.73000285922630      1.03096998962684
  O           1.47713119935455      2.24541406114463      2.93583277115301
  O           1.14138858295183      3.91616558677079      0.96398052491962
  O          -1.10551779647112     -3.72544107772021     -0.99342989889951
  O          -1.39238919776253     -2.06421300500369     -2.95450653033433
  O           1.79949513097550     -3.55438184403287     -0.98636529119866
  O           1.61279356570714     -2.00036881646535     -3.25197050743122
  O           1.24424024295664     -2.35677237477219      3.17467464879664
  O           2.49893388113048      0.24140228268050      3.29723253002107
  O           2.77567960990341     -2.92115437210044      0.96425508680978
  O           3.80071461239834     -0.07617222311718      1.06926457658501
  O          -3.71761530684484      0.24554089175535     -1.04234996085073
  O          -2.67119887851559      3.09532962040053     -0.93712621776820
  O          -2.41765193189237     -0.05459186135176     -3.27758344697996
  O          -1.16015746375413      2.52927006605602     -3.15565017977691
  O           1.10839265782814      2.45753394679353     -3.24001742055745
  O           2.51271357913919      3.05018113836348     -0.63796572593088
  O           2.50726230371493      0.08507856745425     -3.35744300557834
  O           3.93620724168695      0.89802107877328     -0.98571462331020
  O          -3.86609530873626     -0.72059608879964      1.01622922493016
  O          -2.43107404844998      0.06899416610454      3.38165801149568
  O          -2.45638183911649     -2.87000599133621      0.63040183762499
  O          -1.02440884144081     -2.29631578326816      3.25524877278528
  C          -2.25423409130672      1.25109479393829      3.80249708729257
  C          -2.53308710404917      3.87175583534114      0.05917885571797
  C           2.16901214116459      1.41731459575186      3.61937281475981
  C           2.04451258312921      3.99412470269969      0.08332534151129
  C          -2.01669323818913     -3.80284438198671     -0.12071281064462
  C          -2.08373300748711     -1.22451062340254     -3.62165249661519
  C           2.64004468816684     -3.67796607112875     -0.04655018145280
  C           2.33568537048636     -1.09743329625943     -3.77899428533049
  C           0.11811876260300     -2.67986862747654      3.65787877589727
  C           4.42665325691353      0.34618407709871      0.03955698157612
  C          -4.34937746151583     -0.16947202187420     -0.01245449662155
  C          -0.03307610167507      2.85012557130920     -3.63757809553165
  H          -2.45139830933074     -1.57783275295933     -4.62940667919656
  H           3.34569348085146     -4.55605813851039     -0.11364008260553
  H           2.53847699299054      1.79114581547453      4.61886398397302
  H          -3.19571685682664      4.78446029890749      0.07974290032831
  H           2.88211000170025     -1.38115880021989     -4.72421698128885
  H          -0.04193734085614      3.56138829075791     -4.51313067882054
  H           2.50567804873901      5.01245183705607     -0.07720702256688
  H           5.54925106346485      0.22519847504767      0.06008165754817
  H          -2.51477474058906     -4.80982106317718     -0.00128272713593
  H          -5.47104646537423     -0.04037960621349     -0.03756279874946
  H          -2.79735725519671      1.53657189128204      4.74916673547672
  H           0.13008192518041     -3.38213653684137      4.54071729430405
  Al          0.55048972419393     -7.68610967300787     -0.52285868060411
  Al          0.33128772421480     -6.31241525781268      1.73280745662056
  H          -0.73685967841704     -7.02922468798903      0.50951891553777
  H           0.21699595657222     -7.17396256211987      3.08898672764771
  H           1.61731270120246     -6.98887478095946      0.72283984183955
  H           0.68121334615395     -6.83710178090807     -1.87953800858488
  H           0.55970344685267     -9.28272075475113     -0.30774948511768
  H           0.31641099121883     -4.72074742936586      1.55688652707213
